
---------- Begin Simulation Statistics ----------
final_tick                               190120240500                       # Number of ticks from beginning of simulation (restored from checkpoints and never reset)
host_inst_rate                                 787241                       # Simulator instruction rate (inst/s)
host_mem_usage                                 690312                       # Number of bytes of host memory used
host_op_rate                                  1450192                       # Simulator op (including micro ops) rate (op/s)
host_seconds                                   127.03                       # Real time elapsed on the host
host_tick_rate                             1496702031                       # Simulator tick rate (ticks/s)
sim_freq                                 1000000000000                       # Frequency of simulated ticks
sim_insts                                   100000001                       # Number of instructions simulated
sim_ops                                     184212218                       # Number of ops (including micro ops) simulated
sim_seconds                                  0.190120                       # Number of seconds simulated
sim_ticks                                190120240500                       # Number of ticks simulated
system.cpu.Branches                          21138365                       # Number of branches fetched
system.cpu.committedInsts                   100000001                       # Number of instructions committed
system.cpu.committedOps                     184212218                       # Number of ops (including micro ops) committed
system.cpu.idle_fraction                            0                       # Percentage of idle cycles
system.cpu.not_idle_fraction                        1                       # Percentage of non-idle cycles
system.cpu.numCycles                        380240481                       # number of cpu cycles simulated
system.cpu.numWorkItemsCompleted                    0                       # number of work items this cpu completed
system.cpu.numWorkItemsStarted                      0                       # number of work items this cpu started
system.cpu.num_busy_cycles                  380240481                       # Number of busy cycles
system.cpu.num_cc_register_reads            110470900                       # number of times the CC registers were read
system.cpu.num_cc_register_writes            56278691                       # number of times the CC registers were written
system.cpu.num_conditional_control_insts     17377044                       # number of instructions that are conditional controls
system.cpu.num_fp_alu_accesses                4198252                       # Number of float alu accesses
system.cpu.num_fp_insts                       4198252                       # number of float instructions
system.cpu.num_fp_register_reads              4465556                       # number of times the floating registers were read
system.cpu.num_fp_register_writes             2555554                       # number of times the floating registers were written
system.cpu.num_func_calls                     1777727                       # number of times a function call or return occured
system.cpu.num_idle_cycles                          0                       # Number of idle cycles
system.cpu.num_int_alu_accesses             181168224                       # Number of integer alu accesses
system.cpu.num_int_insts                    181168224                       # number of integer instructions
system.cpu.num_int_register_reads           359599209                       # number of times the integer registers were read
system.cpu.num_int_register_writes          144214147                       # number of times the integer registers were written
system.cpu.num_load_insts                    23270941                       # Number of load instructions
system.cpu.num_mem_refs                      38707146                       # number of memory refs
system.cpu.num_store_insts                   15436205                       # Number of store instructions
system.cpu.num_vec_alu_accesses                     0                       # Number of vector alu accesses
system.cpu.num_vec_insts                            0                       # number of vector instructions
system.cpu.num_vec_register_reads                   0                       # number of times the vector registers were read
system.cpu.num_vec_register_writes                  0                       # number of times the vector registers were written
system.cpu.op_class::No_OpClass               1407926      0.76%      0.76% # Class of executed instruction
system.cpu.op_class::IntAlu                 141803021     76.98%     77.74% # Class of executed instruction
system.cpu.op_class::IntMult                   451603      0.25%     77.99% # Class of executed instruction
system.cpu.op_class::IntDiv                        28      0.00%     77.99% # Class of executed instruction
system.cpu.op_class::FloatAdd                  465164      0.25%     78.24% # Class of executed instruction
system.cpu.op_class::FloatCmp                       0      0.00%     78.24% # Class of executed instruction
system.cpu.op_class::FloatCvt                       0      0.00%     78.24% # Class of executed instruction
system.cpu.op_class::FloatMult                      0      0.00%     78.24% # Class of executed instruction
system.cpu.op_class::FloatMultAcc                   0      0.00%     78.24% # Class of executed instruction
system.cpu.op_class::FloatDiv                       0      0.00%     78.24% # Class of executed instruction
system.cpu.op_class::FloatMisc                      0      0.00%     78.24% # Class of executed instruction
system.cpu.op_class::FloatSqrt                      0      0.00%     78.24% # Class of executed instruction
system.cpu.op_class::SimdAdd                        0      0.00%     78.24% # Class of executed instruction
system.cpu.op_class::SimdAddAcc                     0      0.00%     78.24% # Class of executed instruction
system.cpu.op_class::SimdAlu                    95520      0.05%     78.29% # Class of executed instruction
system.cpu.op_class::SimdCmp                        0      0.00%     78.29% # Class of executed instruction
system.cpu.op_class::SimdCvt                   215010      0.12%     78.41% # Class of executed instruction
system.cpu.op_class::SimdMisc                 1068136      0.58%     78.99% # Class of executed instruction
system.cpu.op_class::SimdMult                       0      0.00%     78.99% # Class of executed instruction
system.cpu.op_class::SimdMultAcc                    0      0.00%     78.99% # Class of executed instruction
system.cpu.op_class::SimdShift                      0      0.00%     78.99% # Class of executed instruction
system.cpu.op_class::SimdShiftAcc                   0      0.00%     78.99% # Class of executed instruction
system.cpu.op_class::SimdDiv                        0      0.00%     78.99% # Class of executed instruction
system.cpu.op_class::SimdSqrt                       0      0.00%     78.99% # Class of executed instruction
system.cpu.op_class::SimdFloatAdd                   0      0.00%     78.99% # Class of executed instruction
system.cpu.op_class::SimdFloatAlu                   0      0.00%     78.99% # Class of executed instruction
system.cpu.op_class::SimdFloatCmp                   0      0.00%     78.99% # Class of executed instruction
system.cpu.op_class::SimdFloatCvt                   0      0.00%     78.99% # Class of executed instruction
system.cpu.op_class::SimdFloatDiv                   0      0.00%     78.99% # Class of executed instruction
system.cpu.op_class::SimdFloatMisc                  0      0.00%     78.99% # Class of executed instruction
system.cpu.op_class::SimdFloatMult                  0      0.00%     78.99% # Class of executed instruction
system.cpu.op_class::SimdFloatMultAcc               0      0.00%     78.99% # Class of executed instruction
system.cpu.op_class::SimdFloatSqrt                  0      0.00%     78.99% # Class of executed instruction
system.cpu.op_class::SimdReduceAdd                  0      0.00%     78.99% # Class of executed instruction
system.cpu.op_class::SimdReduceAlu                  0      0.00%     78.99% # Class of executed instruction
system.cpu.op_class::SimdReduceCmp                  0      0.00%     78.99% # Class of executed instruction
system.cpu.op_class::SimdFloatReduceAdd             0      0.00%     78.99% # Class of executed instruction
system.cpu.op_class::SimdFloatReduceCmp             0      0.00%     78.99% # Class of executed instruction
system.cpu.op_class::SimdAes                        0      0.00%     78.99% # Class of executed instruction
system.cpu.op_class::SimdAesMix                     0      0.00%     78.99% # Class of executed instruction
system.cpu.op_class::SimdSha1Hash                   0      0.00%     78.99% # Class of executed instruction
system.cpu.op_class::SimdSha1Hash2                  0      0.00%     78.99% # Class of executed instruction
system.cpu.op_class::SimdSha256Hash                 0      0.00%     78.99% # Class of executed instruction
system.cpu.op_class::SimdSha256Hash2                0      0.00%     78.99% # Class of executed instruction
system.cpu.op_class::SimdShaSigma2                  0      0.00%     78.99% # Class of executed instruction
system.cpu.op_class::SimdShaSigma3                  0      0.00%     78.99% # Class of executed instruction
system.cpu.op_class::SimdPredAlu                    0      0.00%     78.99% # Class of executed instruction
system.cpu.op_class::MemRead                 22624662     12.28%     91.27% # Class of executed instruction
system.cpu.op_class::MemWrite                14008515      7.60%     98.87% # Class of executed instruction
system.cpu.op_class::FloatMemRead              646279      0.35%     99.22% # Class of executed instruction
system.cpu.op_class::FloatMemWrite            1427690      0.78%    100.00% # Class of executed instruction
system.cpu.op_class::IprAccess                      0      0.00%    100.00% # Class of executed instruction
system.cpu.op_class::InstPrefetch                   0      0.00%    100.00% # Class of executed instruction
system.cpu.op_class::total                  184213554                       # Class of executed instruction
system.cpu.workload.numSyscalls                    93                       # Number of system calls
system.membus.snoop_filter.hit_multi_requests            0                       # Number of requests hitting in the snoop filter with multiple (>1) holders of the requested data.
system.membus.snoop_filter.hit_multi_snoops            0                       # Number of snoops hitting in the snoop filter with multiple (>1) holders of the requested data.
system.membus.snoop_filter.hit_single_requests        22946                       # Number of requests hitting in the snoop filter with a single holder of the requested data.
system.membus.snoop_filter.hit_single_snoops            0                       # Number of snoops hitting in the snoop filter with a single holder of the requested data.
system.membus.snoop_filter.tot_requests        171595                       # Total number of requests made to the snoop filter.
system.membus.snoop_filter.tot_snoops               0                       # Total number of snoops made to the snoop filter.
system.tol2bus.snoop_filter.hit_multi_requests            0                       # Number of requests hitting in the snoop filter with multiple (>1) holders of the requested data.
system.tol2bus.snoop_filter.hit_multi_snoops            0                       # Number of snoops hitting in the snoop filter with multiple (>1) holders of the requested data.
system.tol2bus.snoop_filter.hit_single_requests       158046                       # Number of requests hitting in the snoop filter with a single holder of the requested data.
system.tol2bus.snoop_filter.hit_single_snoops          917                       # Number of snoops hitting in the snoop filter with a single holder of the requested data.
system.tol2bus.snoop_filter.tot_requests       321217                       # Total number of requests made to the snoop filter.
system.tol2bus.snoop_filter.tot_snoops            917                       # Total number of snoops made to the snoop filter.
system.clk_domain.clock                          1000                       # Clock period in ticks
system.cpu.dcache.demand_hits::.cpu.data     38576096                       # number of demand (read+write) hits
system.cpu.dcache.demand_hits::total         38576096                       # number of demand (read+write) hits
system.cpu.dcache.overall_hits::.cpu.data     38576096                       # number of overall hits
system.cpu.dcache.overall_hits::total        38576096                       # number of overall hits
system.cpu.dcache.demand_misses::.cpu.data       162121                       # number of demand (read+write) misses
system.cpu.dcache.demand_misses::total         162121                       # number of demand (read+write) misses
system.cpu.dcache.overall_misses::.cpu.data       162121                       # number of overall misses
system.cpu.dcache.overall_misses::total        162121                       # number of overall misses
system.cpu.dcache.demand_miss_latency::.cpu.data  11734220000                       # number of demand (read+write) miss cycles
system.cpu.dcache.demand_miss_latency::total  11734220000                       # number of demand (read+write) miss cycles
system.cpu.dcache.overall_miss_latency::.cpu.data  11734220000                       # number of overall miss cycles
system.cpu.dcache.overall_miss_latency::total  11734220000                       # number of overall miss cycles
system.cpu.dcache.demand_accesses::.cpu.data     38738217                       # number of demand (read+write) accesses
system.cpu.dcache.demand_accesses::total     38738217                       # number of demand (read+write) accesses
system.cpu.dcache.overall_accesses::.cpu.data     38738217                       # number of overall (read+write) accesses
system.cpu.dcache.overall_accesses::total     38738217                       # number of overall (read+write) accesses
system.cpu.dcache.demand_miss_rate::.cpu.data     0.004185                       # miss rate for demand accesses
system.cpu.dcache.demand_miss_rate::total     0.004185                       # miss rate for demand accesses
system.cpu.dcache.overall_miss_rate::.cpu.data     0.004185                       # miss rate for overall accesses
system.cpu.dcache.overall_miss_rate::total     0.004185                       # miss rate for overall accesses
system.cpu.dcache.demand_avg_miss_latency::.cpu.data 72379.395637                       # average overall miss latency
system.cpu.dcache.demand_avg_miss_latency::total 72379.395637                       # average overall miss latency
system.cpu.dcache.overall_avg_miss_latency::.cpu.data 72379.395637                       # average overall miss latency
system.cpu.dcache.overall_avg_miss_latency::total 72379.395637                       # average overall miss latency
system.cpu.dcache.blocked_cycles::no_mshrs            0                       # number of cycles access was blocked
system.cpu.dcache.blocked_cycles::no_targets            0                       # number of cycles access was blocked
system.cpu.dcache.blocked::no_mshrs                 0                       # number of cycles access was blocked
system.cpu.dcache.blocked::no_targets               0                       # number of cycles access was blocked
system.cpu.dcache.avg_blocked_cycles::no_mshrs          nan                       # average number of cycles each access was blocked
system.cpu.dcache.avg_blocked_cycles::no_targets          nan                       # average number of cycles each access was blocked
system.cpu.dcache.writebacks::.writebacks       155048                       # number of writebacks
system.cpu.dcache.writebacks::total            155048                       # number of writebacks
system.cpu.dcache.demand_mshr_misses::.cpu.data       162121                       # number of demand (read+write) MSHR misses
system.cpu.dcache.demand_mshr_misses::total       162121                       # number of demand (read+write) MSHR misses
system.cpu.dcache.overall_mshr_misses::.cpu.data       162121                       # number of overall MSHR misses
system.cpu.dcache.overall_mshr_misses::total       162121                       # number of overall MSHR misses
system.cpu.dcache.demand_mshr_miss_latency::.cpu.data  11572099000                       # number of demand (read+write) MSHR miss cycles
system.cpu.dcache.demand_mshr_miss_latency::total  11572099000                       # number of demand (read+write) MSHR miss cycles
system.cpu.dcache.overall_mshr_miss_latency::.cpu.data  11572099000                       # number of overall MSHR miss cycles
system.cpu.dcache.overall_mshr_miss_latency::total  11572099000                       # number of overall MSHR miss cycles
system.cpu.dcache.demand_mshr_miss_rate::.cpu.data     0.004185                       # mshr miss rate for demand accesses
system.cpu.dcache.demand_mshr_miss_rate::total     0.004185                       # mshr miss rate for demand accesses
system.cpu.dcache.overall_mshr_miss_rate::.cpu.data     0.004185                       # mshr miss rate for overall accesses
system.cpu.dcache.overall_mshr_miss_rate::total     0.004185                       # mshr miss rate for overall accesses
system.cpu.dcache.demand_avg_mshr_miss_latency::.cpu.data 71379.395637                       # average overall mshr miss latency
system.cpu.dcache.demand_avg_mshr_miss_latency::total 71379.395637                       # average overall mshr miss latency
system.cpu.dcache.overall_avg_mshr_miss_latency::.cpu.data 71379.395637                       # average overall mshr miss latency
system.cpu.dcache.overall_avg_mshr_miss_latency::total 71379.395637                       # average overall mshr miss latency
system.cpu.dcache.replacements                 158025                       # number of replacements
system.cpu.dcache.ReadReq_hits::.cpu.data     23278683                       # number of ReadReq hits
system.cpu.dcache.ReadReq_hits::total        23278683                       # number of ReadReq hits
system.cpu.dcache.ReadReq_misses::.cpu.data        24565                       # number of ReadReq misses
system.cpu.dcache.ReadReq_misses::total         24565                       # number of ReadReq misses
system.cpu.dcache.ReadReq_miss_latency::.cpu.data    947351500                       # number of ReadReq miss cycles
system.cpu.dcache.ReadReq_miss_latency::total    947351500                       # number of ReadReq miss cycles
system.cpu.dcache.ReadReq_accesses::.cpu.data     23303248                       # number of ReadReq accesses(hits+misses)
system.cpu.dcache.ReadReq_accesses::total     23303248                       # number of ReadReq accesses(hits+misses)
system.cpu.dcache.ReadReq_miss_rate::.cpu.data     0.001054                       # miss rate for ReadReq accesses
system.cpu.dcache.ReadReq_miss_rate::total     0.001054                       # miss rate for ReadReq accesses
system.cpu.dcache.ReadReq_avg_miss_latency::.cpu.data 38565.092611                       # average ReadReq miss latency
system.cpu.dcache.ReadReq_avg_miss_latency::total 38565.092611                       # average ReadReq miss latency
system.cpu.dcache.ReadReq_mshr_misses::.cpu.data        24565                       # number of ReadReq MSHR misses
system.cpu.dcache.ReadReq_mshr_misses::total        24565                       # number of ReadReq MSHR misses
system.cpu.dcache.ReadReq_mshr_miss_latency::.cpu.data    922786500                       # number of ReadReq MSHR miss cycles
system.cpu.dcache.ReadReq_mshr_miss_latency::total    922786500                       # number of ReadReq MSHR miss cycles
system.cpu.dcache.ReadReq_mshr_miss_rate::.cpu.data     0.001054                       # mshr miss rate for ReadReq accesses
system.cpu.dcache.ReadReq_mshr_miss_rate::total     0.001054                       # mshr miss rate for ReadReq accesses
system.cpu.dcache.ReadReq_avg_mshr_miss_latency::.cpu.data 37565.092611                       # average ReadReq mshr miss latency
system.cpu.dcache.ReadReq_avg_mshr_miss_latency::total 37565.092611                       # average ReadReq mshr miss latency
system.cpu.dcache.WriteReq_hits::.cpu.data     15297413                       # number of WriteReq hits
system.cpu.dcache.WriteReq_hits::total       15297413                       # number of WriteReq hits
system.cpu.dcache.WriteReq_misses::.cpu.data       137556                       # number of WriteReq misses
system.cpu.dcache.WriteReq_misses::total       137556                       # number of WriteReq misses
system.cpu.dcache.WriteReq_miss_latency::.cpu.data  10786868500                       # number of WriteReq miss cycles
system.cpu.dcache.WriteReq_miss_latency::total  10786868500                       # number of WriteReq miss cycles
system.cpu.dcache.WriteReq_accesses::.cpu.data     15434969                       # number of WriteReq accesses(hits+misses)
system.cpu.dcache.WriteReq_accesses::total     15434969                       # number of WriteReq accesses(hits+misses)
system.cpu.dcache.WriteReq_miss_rate::.cpu.data     0.008912                       # miss rate for WriteReq accesses
system.cpu.dcache.WriteReq_miss_rate::total     0.008912                       # miss rate for WriteReq accesses
system.cpu.dcache.WriteReq_avg_miss_latency::.cpu.data 78418.015208                       # average WriteReq miss latency
system.cpu.dcache.WriteReq_avg_miss_latency::total 78418.015208                       # average WriteReq miss latency
system.cpu.dcache.WriteReq_mshr_misses::.cpu.data       137556                       # number of WriteReq MSHR misses
system.cpu.dcache.WriteReq_mshr_misses::total       137556                       # number of WriteReq MSHR misses
system.cpu.dcache.WriteReq_mshr_miss_latency::.cpu.data  10649312500                       # number of WriteReq MSHR miss cycles
system.cpu.dcache.WriteReq_mshr_miss_latency::total  10649312500                       # number of WriteReq MSHR miss cycles
system.cpu.dcache.WriteReq_mshr_miss_rate::.cpu.data     0.008912                       # mshr miss rate for WriteReq accesses
system.cpu.dcache.WriteReq_mshr_miss_rate::total     0.008912                       # mshr miss rate for WriteReq accesses
system.cpu.dcache.WriteReq_avg_mshr_miss_latency::.cpu.data 77418.015208                       # average WriteReq mshr miss latency
system.cpu.dcache.WriteReq_avg_mshr_miss_latency::total 77418.015208                       # average WriteReq mshr miss latency
system.cpu.dcache.power_state.pwrStateResidencyTicks::UNDEFINED 190120240500                       # Cumulative time (in ticks) in various power states
system.cpu.dcache.tags.tagsinuse          4078.204800                       # Cycle average of tags in use
system.cpu.dcache.tags.total_refs            38738217                       # Total number of references to valid blocks.
system.cpu.dcache.tags.sampled_refs            162121                       # Sample count of references to valid blocks.
system.cpu.dcache.tags.avg_refs            238.946324                       # Average number of references to valid blocks.
system.cpu.dcache.tags.warmup_cycle            177500                       # Cycle when the warmup percentage was hit.
system.cpu.dcache.tags.occ_blocks::.cpu.data  4078.204800                       # Average occupied blocks per requestor
system.cpu.dcache.tags.occ_percent::.cpu.data     0.995655                       # Average percentage of cache occupancy
system.cpu.dcache.tags.occ_percent::total     0.995655                       # Average percentage of cache occupancy
system.cpu.dcache.tags.occ_task_id_blocks::1024         4096                       # Occupied blocks per task id
system.cpu.dcache.tags.age_task_id_blocks_1024::0            5                       # Occupied blocks per task id
system.cpu.dcache.tags.age_task_id_blocks_1024::1           51                       # Occupied blocks per task id
system.cpu.dcache.tags.age_task_id_blocks_1024::2          598                       # Occupied blocks per task id
system.cpu.dcache.tags.age_task_id_blocks_1024::3         3215                       # Occupied blocks per task id
system.cpu.dcache.tags.age_task_id_blocks_1024::4          227                       # Occupied blocks per task id
system.cpu.dcache.tags.occ_task_id_percent::1024            1                       # Percentage of cache occupancy per task id
system.cpu.dcache.tags.tag_accesses          77638555                       # Number of tag accesses
system.cpu.dcache.tags.data_accesses         77638555                       # Number of data accesses
system.cpu.dcache.tags.power_state.pwrStateResidencyTicks::UNDEFINED 190120240500                       # Cumulative time (in ticks) in various power states
system.cpu.dtb.rdAccesses                    23303250                       # TLB accesses on read requests
system.cpu.dtb.wrAccesses                    15436210                       # TLB accesses on write requests
system.cpu.dtb.rdMisses                         21891                       # TLB misses on read requests
system.cpu.dtb.wrMisses                          2489                       # TLB misses on write requests
system.cpu.dtb.walker.power_state.pwrStateResidencyTicks::UNDEFINED 190120240500                       # Cumulative time (in ticks) in various power states
system.cpu.dtb_walker_cache.blocked_cycles::no_mshrs            0                       # number of cycles access was blocked
system.cpu.dtb_walker_cache.blocked_cycles::no_targets            0                       # number of cycles access was blocked
system.cpu.dtb_walker_cache.blocked::no_mshrs            0                       # number of cycles access was blocked
system.cpu.dtb_walker_cache.blocked::no_targets            0                       # number of cycles access was blocked
system.cpu.dtb_walker_cache.avg_blocked_cycles::no_mshrs          nan                       # average number of cycles each access was blocked
system.cpu.dtb_walker_cache.avg_blocked_cycles::no_targets          nan                       # average number of cycles each access was blocked
system.cpu.dtb_walker_cache.replacements            0                       # number of replacements
system.cpu.dtb_walker_cache.power_state.pwrStateResidencyTicks::UNDEFINED 190120240500                       # Cumulative time (in ticks) in various power states
system.cpu.dtb_walker_cache.tags.tagsinuse            0                       # Cycle average of tags in use
system.cpu.dtb_walker_cache.tags.total_refs            0                       # Total number of references to valid blocks.
system.cpu.dtb_walker_cache.tags.sampled_refs            0                       # Sample count of references to valid blocks.
system.cpu.dtb_walker_cache.tags.avg_refs          nan                       # Average number of references to valid blocks.
system.cpu.dtb_walker_cache.tags.warmup_cycle            0                       # Cycle when the warmup percentage was hit.
system.cpu.dtb_walker_cache.tags.tag_accesses            0                       # Number of tag accesses
system.cpu.dtb_walker_cache.tags.data_accesses            0                       # Number of data accesses
system.cpu.dtb_walker_cache.tags.power_state.pwrStateResidencyTicks::UNDEFINED 190120240500                       # Cumulative time (in ticks) in various power states
system.cpu.icache.demand_hits::.cpu.inst    139744651                       # number of demand (read+write) hits
system.cpu.icache.demand_hits::total        139744651                       # number of demand (read+write) hits
system.cpu.icache.overall_hits::.cpu.inst    139744651                       # number of overall hits
system.cpu.icache.overall_hits::total       139744651                       # number of overall hits
system.cpu.icache.demand_misses::.cpu.inst         1050                       # number of demand (read+write) misses
system.cpu.icache.demand_misses::total           1050                       # number of demand (read+write) misses
system.cpu.icache.overall_misses::.cpu.inst         1050                       # number of overall misses
system.cpu.icache.overall_misses::total          1050                       # number of overall misses
system.cpu.icache.demand_miss_latency::.cpu.inst     82106000                       # number of demand (read+write) miss cycles
system.cpu.icache.demand_miss_latency::total     82106000                       # number of demand (read+write) miss cycles
system.cpu.icache.overall_miss_latency::.cpu.inst     82106000                       # number of overall miss cycles
system.cpu.icache.overall_miss_latency::total     82106000                       # number of overall miss cycles
system.cpu.icache.demand_accesses::.cpu.inst    139745701                       # number of demand (read+write) accesses
system.cpu.icache.demand_accesses::total    139745701                       # number of demand (read+write) accesses
system.cpu.icache.overall_accesses::.cpu.inst    139745701                       # number of overall (read+write) accesses
system.cpu.icache.overall_accesses::total    139745701                       # number of overall (read+write) accesses
system.cpu.icache.demand_miss_rate::.cpu.inst     0.000008                       # miss rate for demand accesses
system.cpu.icache.demand_miss_rate::total     0.000008                       # miss rate for demand accesses
system.cpu.icache.overall_miss_rate::.cpu.inst     0.000008                       # miss rate for overall accesses
system.cpu.icache.overall_miss_rate::total     0.000008                       # miss rate for overall accesses
system.cpu.icache.demand_avg_miss_latency::.cpu.inst 78196.190476                       # average overall miss latency
system.cpu.icache.demand_avg_miss_latency::total 78196.190476                       # average overall miss latency
system.cpu.icache.overall_avg_miss_latency::.cpu.inst 78196.190476                       # average overall miss latency
system.cpu.icache.overall_avg_miss_latency::total 78196.190476                       # average overall miss latency
system.cpu.icache.blocked_cycles::no_mshrs            0                       # number of cycles access was blocked
system.cpu.icache.blocked_cycles::no_targets            0                       # number of cycles access was blocked
system.cpu.icache.blocked::no_mshrs                 0                       # number of cycles access was blocked
system.cpu.icache.blocked::no_targets               0                       # number of cycles access was blocked
system.cpu.icache.avg_blocked_cycles::no_mshrs          nan                       # average number of cycles each access was blocked
system.cpu.icache.avg_blocked_cycles::no_targets          nan                       # average number of cycles each access was blocked
system.cpu.icache.writebacks::.writebacks           21                       # number of writebacks
system.cpu.icache.writebacks::total                21                       # number of writebacks
system.cpu.icache.demand_mshr_misses::.cpu.inst         1050                       # number of demand (read+write) MSHR misses
system.cpu.icache.demand_mshr_misses::total         1050                       # number of demand (read+write) MSHR misses
system.cpu.icache.overall_mshr_misses::.cpu.inst         1050                       # number of overall MSHR misses
system.cpu.icache.overall_mshr_misses::total         1050                       # number of overall MSHR misses
system.cpu.icache.demand_mshr_miss_latency::.cpu.inst     81056000                       # number of demand (read+write) MSHR miss cycles
system.cpu.icache.demand_mshr_miss_latency::total     81056000                       # number of demand (read+write) MSHR miss cycles
system.cpu.icache.overall_mshr_miss_latency::.cpu.inst     81056000                       # number of overall MSHR miss cycles
system.cpu.icache.overall_mshr_miss_latency::total     81056000                       # number of overall MSHR miss cycles
system.cpu.icache.demand_mshr_miss_rate::.cpu.inst     0.000008                       # mshr miss rate for demand accesses
system.cpu.icache.demand_mshr_miss_rate::total     0.000008                       # mshr miss rate for demand accesses
system.cpu.icache.overall_mshr_miss_rate::.cpu.inst     0.000008                       # mshr miss rate for overall accesses
system.cpu.icache.overall_mshr_miss_rate::total     0.000008                       # mshr miss rate for overall accesses
system.cpu.icache.demand_avg_mshr_miss_latency::.cpu.inst 77196.190476                       # average overall mshr miss latency
system.cpu.icache.demand_avg_mshr_miss_latency::total 77196.190476                       # average overall mshr miss latency
system.cpu.icache.overall_avg_mshr_miss_latency::.cpu.inst 77196.190476                       # average overall mshr miss latency
system.cpu.icache.overall_avg_mshr_miss_latency::total 77196.190476                       # average overall mshr miss latency
system.cpu.icache.replacements                     21                       # number of replacements
system.cpu.icache.ReadReq_hits::.cpu.inst    139744651                       # number of ReadReq hits
system.cpu.icache.ReadReq_hits::total       139744651                       # number of ReadReq hits
system.cpu.icache.ReadReq_misses::.cpu.inst         1050                       # number of ReadReq misses
system.cpu.icache.ReadReq_misses::total          1050                       # number of ReadReq misses
system.cpu.icache.ReadReq_miss_latency::.cpu.inst     82106000                       # number of ReadReq miss cycles
system.cpu.icache.ReadReq_miss_latency::total     82106000                       # number of ReadReq miss cycles
system.cpu.icache.ReadReq_accesses::.cpu.inst    139745701                       # number of ReadReq accesses(hits+misses)
system.cpu.icache.ReadReq_accesses::total    139745701                       # number of ReadReq accesses(hits+misses)
system.cpu.icache.ReadReq_miss_rate::.cpu.inst     0.000008                       # miss rate for ReadReq accesses
system.cpu.icache.ReadReq_miss_rate::total     0.000008                       # miss rate for ReadReq accesses
system.cpu.icache.ReadReq_avg_miss_latency::.cpu.inst 78196.190476                       # average ReadReq miss latency
system.cpu.icache.ReadReq_avg_miss_latency::total 78196.190476                       # average ReadReq miss latency
system.cpu.icache.ReadReq_mshr_misses::.cpu.inst         1050                       # number of ReadReq MSHR misses
system.cpu.icache.ReadReq_mshr_misses::total         1050                       # number of ReadReq MSHR misses
system.cpu.icache.ReadReq_mshr_miss_latency::.cpu.inst     81056000                       # number of ReadReq MSHR miss cycles
system.cpu.icache.ReadReq_mshr_miss_latency::total     81056000                       # number of ReadReq MSHR miss cycles
system.cpu.icache.ReadReq_mshr_miss_rate::.cpu.inst     0.000008                       # mshr miss rate for ReadReq accesses
system.cpu.icache.ReadReq_mshr_miss_rate::total     0.000008                       # mshr miss rate for ReadReq accesses
system.cpu.icache.ReadReq_avg_mshr_miss_latency::.cpu.inst 77196.190476                       # average ReadReq mshr miss latency
system.cpu.icache.ReadReq_avg_mshr_miss_latency::total 77196.190476                       # average ReadReq mshr miss latency
system.cpu.icache.power_state.pwrStateResidencyTicks::UNDEFINED 190120240500                       # Cumulative time (in ticks) in various power states
system.cpu.icache.tags.tagsinuse          1024.475041                       # Cycle average of tags in use
system.cpu.icache.tags.total_refs           139745701                       # Total number of references to valid blocks.
system.cpu.icache.tags.sampled_refs              1050                       # Sample count of references to valid blocks.
system.cpu.icache.tags.avg_refs          133091.143810                       # Average number of references to valid blocks.
system.cpu.icache.tags.warmup_cycle             87500                       # Cycle when the warmup percentage was hit.
system.cpu.icache.tags.occ_blocks::.cpu.inst  1024.475041                       # Average occupied blocks per requestor
system.cpu.icache.tags.occ_percent::.cpu.inst     0.250116                       # Average percentage of cache occupancy
system.cpu.icache.tags.occ_percent::total     0.250116                       # Average percentage of cache occupancy
system.cpu.icache.tags.occ_task_id_blocks::1024         1029                       # Occupied blocks per task id
system.cpu.icache.tags.age_task_id_blocks_1024::4         1029                       # Occupied blocks per task id
system.cpu.icache.tags.occ_task_id_percent::1024     0.251221                       # Percentage of cache occupancy per task id
system.cpu.icache.tags.tag_accesses         279492452                       # Number of tag accesses
system.cpu.icache.tags.data_accesses        279492452                       # Number of data accesses
system.cpu.icache.tags.power_state.pwrStateResidencyTicks::UNDEFINED 190120240500                       # Cumulative time (in ticks) in various power states
system.cpu.interrupts.clk_domain.clock           8000                       # Clock period in ticks
system.cpu.itb.rdAccesses                           0                       # TLB accesses on read requests
system.cpu.itb.wrAccesses                   139745701                       # TLB accesses on write requests
system.cpu.itb.rdMisses                             0                       # TLB misses on read requests
system.cpu.itb.wrMisses                            51                       # TLB misses on write requests
system.cpu.itb.walker.power_state.pwrStateResidencyTicks::UNDEFINED 190120240500                       # Cumulative time (in ticks) in various power states
system.cpu.itb_walker_cache.blocked_cycles::no_mshrs            0                       # number of cycles access was blocked
system.cpu.itb_walker_cache.blocked_cycles::no_targets            0                       # number of cycles access was blocked
system.cpu.itb_walker_cache.blocked::no_mshrs            0                       # number of cycles access was blocked
system.cpu.itb_walker_cache.blocked::no_targets            0                       # number of cycles access was blocked
system.cpu.itb_walker_cache.avg_blocked_cycles::no_mshrs          nan                       # average number of cycles each access was blocked
system.cpu.itb_walker_cache.avg_blocked_cycles::no_targets          nan                       # average number of cycles each access was blocked
system.cpu.itb_walker_cache.replacements            0                       # number of replacements
system.cpu.itb_walker_cache.power_state.pwrStateResidencyTicks::UNDEFINED 190120240500                       # Cumulative time (in ticks) in various power states
system.cpu.itb_walker_cache.tags.tagsinuse            0                       # Cycle average of tags in use
system.cpu.itb_walker_cache.tags.total_refs            0                       # Total number of references to valid blocks.
system.cpu.itb_walker_cache.tags.sampled_refs            0                       # Sample count of references to valid blocks.
system.cpu.itb_walker_cache.tags.avg_refs          nan                       # Average number of references to valid blocks.
system.cpu.itb_walker_cache.tags.warmup_cycle            0                       # Cycle when the warmup percentage was hit.
system.cpu.itb_walker_cache.tags.tag_accesses            0                       # Number of tag accesses
system.cpu.itb_walker_cache.tags.data_accesses            0                       # Number of data accesses
system.cpu.itb_walker_cache.tags.power_state.pwrStateResidencyTicks::UNDEFINED 190120240500                       # Cumulative time (in ticks) in various power states
system.cpu.power_state.pwrStateResidencyTicks::ON 190120240500                       # Cumulative time (in ticks) in various power states
system.cpu.thread_0.numInsts                        0                       # Number of Instructions committed
system.cpu.thread_0.numOps                          0                       # Number of Ops committed
system.cpu.thread_0.numMemRefs                      0                       # Number of Memory References
system.cpu_clk_domain.clock                       500                       # Clock period in ticks
system.cpu_voltage_domain.voltage                   1                       # Voltage in Volts
system.l2.demand_hits::.cpu.data                14522                       # number of demand (read+write) hits
system.l2.demand_hits::total                    14522                       # number of demand (read+write) hits
system.l2.overall_hits::.cpu.data               14522                       # number of overall hits
system.l2.overall_hits::total                   14522                       # number of overall hits
system.l2.demand_misses::.cpu.inst               1050                       # number of demand (read+write) misses
system.l2.demand_misses::.cpu.data             147599                       # number of demand (read+write) misses
system.l2.demand_misses::total                 148649                       # number of demand (read+write) misses
system.l2.overall_misses::.cpu.inst              1050                       # number of overall misses
system.l2.overall_misses::.cpu.data            147599                       # number of overall misses
system.l2.overall_misses::total                148649                       # number of overall misses
system.l2.demand_miss_latency::.cpu.inst     79481000                       # number of demand (read+write) miss cycles
system.l2.demand_miss_latency::.cpu.data  11176436500                       # number of demand (read+write) miss cycles
system.l2.demand_miss_latency::total      11255917500                       # number of demand (read+write) miss cycles
system.l2.overall_miss_latency::.cpu.inst     79481000                       # number of overall miss cycles
system.l2.overall_miss_latency::.cpu.data  11176436500                       # number of overall miss cycles
system.l2.overall_miss_latency::total     11255917500                       # number of overall miss cycles
system.l2.demand_accesses::.cpu.inst             1050                       # number of demand (read+write) accesses
system.l2.demand_accesses::.cpu.data           162121                       # number of demand (read+write) accesses
system.l2.demand_accesses::total               163171                       # number of demand (read+write) accesses
system.l2.overall_accesses::.cpu.inst            1050                       # number of overall (read+write) accesses
system.l2.overall_accesses::.cpu.data          162121                       # number of overall (read+write) accesses
system.l2.overall_accesses::total              163171                       # number of overall (read+write) accesses
system.l2.demand_miss_rate::.cpu.inst               1                       # miss rate for demand accesses
system.l2.demand_miss_rate::.cpu.data        0.910425                       # miss rate for demand accesses
system.l2.demand_miss_rate::total            0.911001                       # miss rate for demand accesses
system.l2.overall_miss_rate::.cpu.inst              1                       # miss rate for overall accesses
system.l2.overall_miss_rate::.cpu.data       0.910425                       # miss rate for overall accesses
system.l2.overall_miss_rate::total           0.911001                       # miss rate for overall accesses
system.l2.demand_avg_miss_latency::.cpu.inst 75696.190476                       # average overall miss latency
system.l2.demand_avg_miss_latency::.cpu.data 75721.627518                       # average overall miss latency
system.l2.demand_avg_miss_latency::total 75721.447840                       # average overall miss latency
system.l2.overall_avg_miss_latency::.cpu.inst 75696.190476                       # average overall miss latency
system.l2.overall_avg_miss_latency::.cpu.data 75721.627518                       # average overall miss latency
system.l2.overall_avg_miss_latency::total 75721.447840                       # average overall miss latency
system.l2.blocked_cycles::no_mshrs                  0                       # number of cycles access was blocked
system.l2.blocked_cycles::no_targets                0                       # number of cycles access was blocked
system.l2.blocked::no_mshrs                         0                       # number of cycles access was blocked
system.l2.blocked::no_targets                       0                       # number of cycles access was blocked
system.l2.avg_blocked_cycles::no_mshrs            nan                       # average number of cycles each access was blocked
system.l2.avg_blocked_cycles::no_targets          nan                       # average number of cycles each access was blocked
system.l2.writebacks::.writebacks               22805                       # number of writebacks
system.l2.writebacks::total                     22805                       # number of writebacks
system.l2.demand_mshr_misses::.cpu.inst          1050                       # number of demand (read+write) MSHR misses
system.l2.demand_mshr_misses::.cpu.data        147599                       # number of demand (read+write) MSHR misses
system.l2.demand_mshr_misses::total            148649                       # number of demand (read+write) MSHR misses
system.l2.overall_mshr_misses::.cpu.inst         1050                       # number of overall MSHR misses
system.l2.overall_mshr_misses::.cpu.data       147599                       # number of overall MSHR misses
system.l2.overall_mshr_misses::total           148649                       # number of overall MSHR misses
system.l2.demand_mshr_miss_latency::.cpu.inst     68981000                       # number of demand (read+write) MSHR miss cycles
system.l2.demand_mshr_miss_latency::.cpu.data   9700446500                       # number of demand (read+write) MSHR miss cycles
system.l2.demand_mshr_miss_latency::total   9769427500                       # number of demand (read+write) MSHR miss cycles
system.l2.overall_mshr_miss_latency::.cpu.inst     68981000                       # number of overall MSHR miss cycles
system.l2.overall_mshr_miss_latency::.cpu.data   9700446500                       # number of overall MSHR miss cycles
system.l2.overall_mshr_miss_latency::total   9769427500                       # number of overall MSHR miss cycles
system.l2.demand_mshr_miss_rate::.cpu.inst            1                       # mshr miss rate for demand accesses
system.l2.demand_mshr_miss_rate::.cpu.data     0.910425                       # mshr miss rate for demand accesses
system.l2.demand_mshr_miss_rate::total       0.911001                       # mshr miss rate for demand accesses
system.l2.overall_mshr_miss_rate::.cpu.inst            1                       # mshr miss rate for overall accesses
system.l2.overall_mshr_miss_rate::.cpu.data     0.910425                       # mshr miss rate for overall accesses
system.l2.overall_mshr_miss_rate::total      0.911001                       # mshr miss rate for overall accesses
system.l2.demand_avg_mshr_miss_latency::.cpu.inst 65696.190476                       # average overall mshr miss latency
system.l2.demand_avg_mshr_miss_latency::.cpu.data 65721.627518                       # average overall mshr miss latency
system.l2.demand_avg_mshr_miss_latency::total 65721.447840                       # average overall mshr miss latency
system.l2.overall_avg_mshr_miss_latency::.cpu.inst 65696.190476                       # average overall mshr miss latency
system.l2.overall_avg_mshr_miss_latency::.cpu.data 65721.627518                       # average overall mshr miss latency
system.l2.overall_avg_mshr_miss_latency::total 65721.447840                       # average overall mshr miss latency
system.l2.replacements                          23844                       # number of replacements
system.l2.WritebackDirty_hits::.writebacks       155048                       # number of WritebackDirty hits
system.l2.WritebackDirty_hits::total           155048                       # number of WritebackDirty hits
system.l2.WritebackDirty_accesses::.writebacks       155048                       # number of WritebackDirty accesses(hits+misses)
system.l2.WritebackDirty_accesses::total       155048                       # number of WritebackDirty accesses(hits+misses)
system.l2.WritebackClean_hits::.writebacks           21                       # number of WritebackClean hits
system.l2.WritebackClean_hits::total               21                       # number of WritebackClean hits
system.l2.WritebackClean_accesses::.writebacks           21                       # number of WritebackClean accesses(hits+misses)
system.l2.WritebackClean_accesses::total           21                       # number of WritebackClean accesses(hits+misses)
system.l2.CleanEvict_mshr_misses::.writebacks           19                       # number of CleanEvict MSHR misses
system.l2.CleanEvict_mshr_misses::total            19                       # number of CleanEvict MSHR misses
system.l2.CleanEvict_mshr_miss_rate::.writebacks          inf                       # mshr miss rate for CleanEvict accesses
system.l2.CleanEvict_mshr_miss_rate::total          inf                       # mshr miss rate for CleanEvict accesses
system.l2.ReadExReq_hits::.cpu.data                 1                       # number of ReadExReq hits
system.l2.ReadExReq_hits::total                     1                       # number of ReadExReq hits
system.l2.ReadExReq_misses::.cpu.data          137555                       # number of ReadExReq misses
system.l2.ReadExReq_misses::total              137555                       # number of ReadExReq misses
system.l2.ReadExReq_miss_latency::.cpu.data  10442968000                       # number of ReadExReq miss cycles
system.l2.ReadExReq_miss_latency::total   10442968000                       # number of ReadExReq miss cycles
system.l2.ReadExReq_accesses::.cpu.data        137556                       # number of ReadExReq accesses(hits+misses)
system.l2.ReadExReq_accesses::total            137556                       # number of ReadExReq accesses(hits+misses)
system.l2.ReadExReq_miss_rate::.cpu.data     0.999993                       # miss rate for ReadExReq accesses
system.l2.ReadExReq_miss_rate::total         0.999993                       # miss rate for ReadExReq accesses
system.l2.ReadExReq_avg_miss_latency::.cpu.data 75918.490786                       # average ReadExReq miss latency
system.l2.ReadExReq_avg_miss_latency::total 75918.490786                       # average ReadExReq miss latency
system.l2.ReadExReq_mshr_misses::.cpu.data       137555                       # number of ReadExReq MSHR misses
system.l2.ReadExReq_mshr_misses::total         137555                       # number of ReadExReq MSHR misses
system.l2.ReadExReq_mshr_miss_latency::.cpu.data   9067418000                       # number of ReadExReq MSHR miss cycles
system.l2.ReadExReq_mshr_miss_latency::total   9067418000                       # number of ReadExReq MSHR miss cycles
system.l2.ReadExReq_mshr_miss_rate::.cpu.data     0.999993                       # mshr miss rate for ReadExReq accesses
system.l2.ReadExReq_mshr_miss_rate::total     0.999993                       # mshr miss rate for ReadExReq accesses
system.l2.ReadExReq_avg_mshr_miss_latency::.cpu.data 65918.490786                       # average ReadExReq mshr miss latency
system.l2.ReadExReq_avg_mshr_miss_latency::total 65918.490786                       # average ReadExReq mshr miss latency
system.l2.ReadCleanReq_misses::.cpu.inst         1050                       # number of ReadCleanReq misses
system.l2.ReadCleanReq_misses::total             1050                       # number of ReadCleanReq misses
system.l2.ReadCleanReq_miss_latency::.cpu.inst     79481000                       # number of ReadCleanReq miss cycles
system.l2.ReadCleanReq_miss_latency::total     79481000                       # number of ReadCleanReq miss cycles
system.l2.ReadCleanReq_accesses::.cpu.inst         1050                       # number of ReadCleanReq accesses(hits+misses)
system.l2.ReadCleanReq_accesses::total           1050                       # number of ReadCleanReq accesses(hits+misses)
system.l2.ReadCleanReq_miss_rate::.cpu.inst            1                       # miss rate for ReadCleanReq accesses
system.l2.ReadCleanReq_miss_rate::total             1                       # miss rate for ReadCleanReq accesses
system.l2.ReadCleanReq_avg_miss_latency::.cpu.inst 75696.190476                       # average ReadCleanReq miss latency
system.l2.ReadCleanReq_avg_miss_latency::total 75696.190476                       # average ReadCleanReq miss latency
system.l2.ReadCleanReq_mshr_misses::.cpu.inst         1050                       # number of ReadCleanReq MSHR misses
system.l2.ReadCleanReq_mshr_misses::total         1050                       # number of ReadCleanReq MSHR misses
system.l2.ReadCleanReq_mshr_miss_latency::.cpu.inst     68981000                       # number of ReadCleanReq MSHR miss cycles
system.l2.ReadCleanReq_mshr_miss_latency::total     68981000                       # number of ReadCleanReq MSHR miss cycles
system.l2.ReadCleanReq_mshr_miss_rate::.cpu.inst            1                       # mshr miss rate for ReadCleanReq accesses
system.l2.ReadCleanReq_mshr_miss_rate::total            1                       # mshr miss rate for ReadCleanReq accesses
system.l2.ReadCleanReq_avg_mshr_miss_latency::.cpu.inst 65696.190476                       # average ReadCleanReq mshr miss latency
system.l2.ReadCleanReq_avg_mshr_miss_latency::total 65696.190476                       # average ReadCleanReq mshr miss latency
system.l2.ReadSharedReq_hits::.cpu.data         14521                       # number of ReadSharedReq hits
system.l2.ReadSharedReq_hits::total             14521                       # number of ReadSharedReq hits
system.l2.ReadSharedReq_misses::.cpu.data        10044                       # number of ReadSharedReq misses
system.l2.ReadSharedReq_misses::total           10044                       # number of ReadSharedReq misses
system.l2.ReadSharedReq_miss_latency::.cpu.data    733468500                       # number of ReadSharedReq miss cycles
system.l2.ReadSharedReq_miss_latency::total    733468500                       # number of ReadSharedReq miss cycles
system.l2.ReadSharedReq_accesses::.cpu.data        24565                       # number of ReadSharedReq accesses(hits+misses)
system.l2.ReadSharedReq_accesses::total         24565                       # number of ReadSharedReq accesses(hits+misses)
system.l2.ReadSharedReq_miss_rate::.cpu.data     0.408874                       # miss rate for ReadSharedReq accesses
system.l2.ReadSharedReq_miss_rate::total     0.408874                       # miss rate for ReadSharedReq accesses
system.l2.ReadSharedReq_avg_miss_latency::.cpu.data 73025.537634                       # average ReadSharedReq miss latency
system.l2.ReadSharedReq_avg_miss_latency::total 73025.537634                       # average ReadSharedReq miss latency
system.l2.ReadSharedReq_mshr_misses::.cpu.data        10044                       # number of ReadSharedReq MSHR misses
system.l2.ReadSharedReq_mshr_misses::total        10044                       # number of ReadSharedReq MSHR misses
system.l2.ReadSharedReq_mshr_miss_latency::.cpu.data    633028500                       # number of ReadSharedReq MSHR miss cycles
system.l2.ReadSharedReq_mshr_miss_latency::total    633028500                       # number of ReadSharedReq MSHR miss cycles
system.l2.ReadSharedReq_mshr_miss_rate::.cpu.data     0.408874                       # mshr miss rate for ReadSharedReq accesses
system.l2.ReadSharedReq_mshr_miss_rate::total     0.408874                       # mshr miss rate for ReadSharedReq accesses
system.l2.ReadSharedReq_avg_mshr_miss_latency::.cpu.data 63025.537634                       # average ReadSharedReq mshr miss latency
system.l2.ReadSharedReq_avg_mshr_miss_latency::total 63025.537634                       # average ReadSharedReq mshr miss latency
system.l2.power_state.pwrStateResidencyTicks::UNDEFINED 190120240500                       # Cumulative time (in ticks) in various power states
system.l2.tags.tagsinuse                 93301.614029                       # Cycle average of tags in use
system.l2.tags.total_refs                      321198                       # Total number of references to valid blocks.
system.l2.tags.sampled_refs                    148652                       # Sample count of references to valid blocks.
system.l2.tags.avg_refs                      2.160738                       # Average number of references to valid blocks.
system.l2.tags.warmup_cycle                     77000                       # Cycle when the warmup percentage was hit.
system.l2.tags.occ_blocks::.writebacks       0.773385                       # Average occupied blocks per requestor
system.l2.tags.occ_blocks::.cpu.inst       595.997479                       # Average occupied blocks per requestor
system.l2.tags.occ_blocks::.cpu.data     92704.843164                       # Average occupied blocks per requestor
system.l2.tags.occ_percent::.writebacks      0.000006                       # Average percentage of cache occupancy
system.l2.tags.occ_percent::.cpu.inst        0.004547                       # Average percentage of cache occupancy
system.l2.tags.occ_percent::.cpu.data        0.707282                       # Average percentage of cache occupancy
system.l2.tags.occ_percent::total            0.711835                       # Average percentage of cache occupancy
system.l2.tags.occ_task_id_blocks::1024        124808                       # Occupied blocks per task id
system.l2.tags.age_task_id_blocks_1024::0            4                       # Occupied blocks per task id
system.l2.tags.age_task_id_blocks_1024::1           46                       # Occupied blocks per task id
system.l2.tags.age_task_id_blocks_1024::2          471                       # Occupied blocks per task id
system.l2.tags.age_task_id_blocks_1024::3         4760                       # Occupied blocks per task id
system.l2.tags.age_task_id_blocks_1024::4       119527                       # Occupied blocks per task id
system.l2.tags.occ_task_id_percent::1024     0.952209                       # Percentage of cache occupancy per task id
system.l2.tags.tag_accesses                    791086                       # Number of tag accesses
system.l2.tags.data_accesses                   791086                       # Number of data accesses
system.l2.tags.power_state.pwrStateResidencyTicks::UNDEFINED 190120240500                       # Cumulative time (in ticks) in various power states
system.mem_ctrls.avgPriority_.writebacks::samples     15107.00                       # Average QoS priority value for accepted requests
system.mem_ctrls.avgPriority_.cpu.inst::samples      1050.00                       # Average QoS priority value for accepted requests
system.mem_ctrls.avgPriority_.cpu.data::samples    147594.00                       # Average QoS priority value for accepted requests
system.mem_ctrls.priorityMinLatency      0.000000018750                       # per QoS priority minimum request to response latency (s)
system.mem_ctrls.priorityMaxLatency      0.113988008250                       # per QoS priority maximum request to response latency (s)
system.mem_ctrls.numReadWriteTurnArounds          863                       # Number of turnarounds from READ to WRITE
system.mem_ctrls.numWriteReadTurnArounds          863                       # Number of turnarounds from WRITE to READ
system.mem_ctrls.numStayReadState              368682                       # Number of times bus staying in READ state
system.mem_ctrls.numStayWriteState              14249                       # Number of times bus staying in WRITE state
system.mem_ctrls.readReqs                      148649                       # Number of read requests accepted
system.mem_ctrls.writeReqs                      22805                       # Number of write requests accepted
system.mem_ctrls.readBursts                    148649                       # Number of controller read bursts, including those serviced by the write queue
system.mem_ctrls.writeBursts                    22805                       # Number of controller write bursts, including those merged in the write queue
system.mem_ctrls.servicedByWrQ                      5                       # Number of controller read bursts serviced by the write queue
system.mem_ctrls.mergedWrBursts                  7698                       # Number of controller write bursts merged with an existing one
system.mem_ctrls.neitherReadNorWriteReqs            0                       # Number of requests that are neither read nor write
system.mem_ctrls.avgRdQLen                       1.00                       # Average read queue length when enqueuing
system.mem_ctrls.avgWrQLen                      12.16                       # Average write queue length when enqueuing
system.mem_ctrls.numRdRetry                         0                       # Number of times read queue was full causing retry
system.mem_ctrls.numWrRetry                         0                       # Number of times write queue was full causing retry
system.mem_ctrls.readPktSize::0                     0                       # Read request sizes (log2)
system.mem_ctrls.readPktSize::1                     0                       # Read request sizes (log2)
system.mem_ctrls.readPktSize::2                     0                       # Read request sizes (log2)
system.mem_ctrls.readPktSize::3                     0                       # Read request sizes (log2)
system.mem_ctrls.readPktSize::4                     0                       # Read request sizes (log2)
system.mem_ctrls.readPktSize::5                148649                       # Read request sizes (log2)
system.mem_ctrls.writePktSize::0                    0                       # Write request sizes (log2)
system.mem_ctrls.writePktSize::1                    0                       # Write request sizes (log2)
system.mem_ctrls.writePktSize::2                    0                       # Write request sizes (log2)
system.mem_ctrls.writePktSize::3                    0                       # Write request sizes (log2)
system.mem_ctrls.writePktSize::4                    0                       # Write request sizes (log2)
system.mem_ctrls.writePktSize::5                22805                       # Write request sizes (log2)
system.mem_ctrls.rdQLenPdf::0                  148644                       # What read queue length does an incoming req see
system.mem_ctrls.rdQLenPdf::1                       0                       # What read queue length does an incoming req see
system.mem_ctrls.rdQLenPdf::2                       0                       # What read queue length does an incoming req see
system.mem_ctrls.rdQLenPdf::3                       0                       # What read queue length does an incoming req see
system.mem_ctrls.rdQLenPdf::4                       0                       # What read queue length does an incoming req see
system.mem_ctrls.rdQLenPdf::5                       0                       # What read queue length does an incoming req see
system.mem_ctrls.rdQLenPdf::6                       0                       # What read queue length does an incoming req see
system.mem_ctrls.rdQLenPdf::7                       0                       # What read queue length does an incoming req see
system.mem_ctrls.rdQLenPdf::8                       0                       # What read queue length does an incoming req see
system.mem_ctrls.rdQLenPdf::9                       0                       # What read queue length does an incoming req see
system.mem_ctrls.rdQLenPdf::10                      0                       # What read queue length does an incoming req see
system.mem_ctrls.rdQLenPdf::11                      0                       # What read queue length does an incoming req see
system.mem_ctrls.rdQLenPdf::12                      0                       # What read queue length does an incoming req see
system.mem_ctrls.rdQLenPdf::13                      0                       # What read queue length does an incoming req see
system.mem_ctrls.rdQLenPdf::14                      0                       # What read queue length does an incoming req see
system.mem_ctrls.rdQLenPdf::15                      0                       # What read queue length does an incoming req see
system.mem_ctrls.rdQLenPdf::16                      0                       # What read queue length does an incoming req see
system.mem_ctrls.rdQLenPdf::17                      0                       # What read queue length does an incoming req see
system.mem_ctrls.rdQLenPdf::18                      0                       # What read queue length does an incoming req see
system.mem_ctrls.rdQLenPdf::19                      0                       # What read queue length does an incoming req see
system.mem_ctrls.rdQLenPdf::20                      0                       # What read queue length does an incoming req see
system.mem_ctrls.rdQLenPdf::21                      0                       # What read queue length does an incoming req see
system.mem_ctrls.rdQLenPdf::22                      0                       # What read queue length does an incoming req see
system.mem_ctrls.rdQLenPdf::23                      0                       # What read queue length does an incoming req see
system.mem_ctrls.rdQLenPdf::24                      0                       # What read queue length does an incoming req see
system.mem_ctrls.rdQLenPdf::25                      0                       # What read queue length does an incoming req see
system.mem_ctrls.rdQLenPdf::26                      0                       # What read queue length does an incoming req see
system.mem_ctrls.rdQLenPdf::27                      0                       # What read queue length does an incoming req see
system.mem_ctrls.rdQLenPdf::28                      0                       # What read queue length does an incoming req see
system.mem_ctrls.rdQLenPdf::29                      0                       # What read queue length does an incoming req see
system.mem_ctrls.rdQLenPdf::30                      0                       # What read queue length does an incoming req see
system.mem_ctrls.rdQLenPdf::31                      0                       # What read queue length does an incoming req see
system.mem_ctrls.wrQLenPdf::0                       1                       # What write queue length does an incoming req see
system.mem_ctrls.wrQLenPdf::1                       1                       # What write queue length does an incoming req see
system.mem_ctrls.wrQLenPdf::2                       1                       # What write queue length does an incoming req see
system.mem_ctrls.wrQLenPdf::3                       1                       # What write queue length does an incoming req see
system.mem_ctrls.wrQLenPdf::4                       1                       # What write queue length does an incoming req see
system.mem_ctrls.wrQLenPdf::5                       1                       # What write queue length does an incoming req see
system.mem_ctrls.wrQLenPdf::6                       1                       # What write queue length does an incoming req see
system.mem_ctrls.wrQLenPdf::7                       1                       # What write queue length does an incoming req see
system.mem_ctrls.wrQLenPdf::8                       1                       # What write queue length does an incoming req see
system.mem_ctrls.wrQLenPdf::9                       1                       # What write queue length does an incoming req see
system.mem_ctrls.wrQLenPdf::10                      1                       # What write queue length does an incoming req see
system.mem_ctrls.wrQLenPdf::11                      1                       # What write queue length does an incoming req see
system.mem_ctrls.wrQLenPdf::12                      1                       # What write queue length does an incoming req see
system.mem_ctrls.wrQLenPdf::13                      1                       # What write queue length does an incoming req see
system.mem_ctrls.wrQLenPdf::14                      1                       # What write queue length does an incoming req see
system.mem_ctrls.wrQLenPdf::15                    641                       # What write queue length does an incoming req see
system.mem_ctrls.wrQLenPdf::16                    641                       # What write queue length does an incoming req see
system.mem_ctrls.wrQLenPdf::17                    864                       # What write queue length does an incoming req see
system.mem_ctrls.wrQLenPdf::18                    863                       # What write queue length does an incoming req see
system.mem_ctrls.wrQLenPdf::19                    863                       # What write queue length does an incoming req see
system.mem_ctrls.wrQLenPdf::20                    863                       # What write queue length does an incoming req see
system.mem_ctrls.wrQLenPdf::21                    863                       # What write queue length does an incoming req see
system.mem_ctrls.wrQLenPdf::22                    863                       # What write queue length does an incoming req see
system.mem_ctrls.wrQLenPdf::23                    863                       # What write queue length does an incoming req see
system.mem_ctrls.wrQLenPdf::24                    864                       # What write queue length does an incoming req see
system.mem_ctrls.wrQLenPdf::25                    863                       # What write queue length does an incoming req see
system.mem_ctrls.wrQLenPdf::26                    863                       # What write queue length does an incoming req see
system.mem_ctrls.wrQLenPdf::27                    863                       # What write queue length does an incoming req see
system.mem_ctrls.wrQLenPdf::28                    863                       # What write queue length does an incoming req see
system.mem_ctrls.wrQLenPdf::29                    863                       # What write queue length does an incoming req see
system.mem_ctrls.wrQLenPdf::30                    863                       # What write queue length does an incoming req see
system.mem_ctrls.wrQLenPdf::31                    863                       # What write queue length does an incoming req see
system.mem_ctrls.wrQLenPdf::32                    863                       # What write queue length does an incoming req see
system.mem_ctrls.wrQLenPdf::33                      0                       # What write queue length does an incoming req see
system.mem_ctrls.wrQLenPdf::34                      0                       # What write queue length does an incoming req see
system.mem_ctrls.wrQLenPdf::35                      0                       # What write queue length does an incoming req see
system.mem_ctrls.wrQLenPdf::36                      0                       # What write queue length does an incoming req see
system.mem_ctrls.wrQLenPdf::37                      0                       # What write queue length does an incoming req see
system.mem_ctrls.wrQLenPdf::38                      0                       # What write queue length does an incoming req see
system.mem_ctrls.wrQLenPdf::39                      0                       # What write queue length does an incoming req see
system.mem_ctrls.wrQLenPdf::40                      0                       # What write queue length does an incoming req see
system.mem_ctrls.wrQLenPdf::41                      0                       # What write queue length does an incoming req see
system.mem_ctrls.wrQLenPdf::42                      0                       # What write queue length does an incoming req see
system.mem_ctrls.wrQLenPdf::43                      0                       # What write queue length does an incoming req see
system.mem_ctrls.wrQLenPdf::44                      0                       # What write queue length does an incoming req see
system.mem_ctrls.wrQLenPdf::45                      0                       # What write queue length does an incoming req see
system.mem_ctrls.wrQLenPdf::46                      0                       # What write queue length does an incoming req see
system.mem_ctrls.wrQLenPdf::47                      0                       # What write queue length does an incoming req see
system.mem_ctrls.wrQLenPdf::48                      0                       # What write queue length does an incoming req see
system.mem_ctrls.wrQLenPdf::49                      0                       # What write queue length does an incoming req see
system.mem_ctrls.wrQLenPdf::50                      0                       # What write queue length does an incoming req see
system.mem_ctrls.wrQLenPdf::51                      0                       # What write queue length does an incoming req see
system.mem_ctrls.wrQLenPdf::52                      0                       # What write queue length does an incoming req see
system.mem_ctrls.wrQLenPdf::53                      0                       # What write queue length does an incoming req see
system.mem_ctrls.wrQLenPdf::54                      0                       # What write queue length does an incoming req see
system.mem_ctrls.wrQLenPdf::55                      0                       # What write queue length does an incoming req see
system.mem_ctrls.wrQLenPdf::56                      0                       # What write queue length does an incoming req see
system.mem_ctrls.wrQLenPdf::57                      0                       # What write queue length does an incoming req see
system.mem_ctrls.wrQLenPdf::58                      0                       # What write queue length does an incoming req see
system.mem_ctrls.wrQLenPdf::59                      0                       # What write queue length does an incoming req see
system.mem_ctrls.wrQLenPdf::60                      0                       # What write queue length does an incoming req see
system.mem_ctrls.wrQLenPdf::61                      0                       # What write queue length does an incoming req see
system.mem_ctrls.wrQLenPdf::62                      0                       # What write queue length does an incoming req see
system.mem_ctrls.wrQLenPdf::63                      0                       # What write queue length does an incoming req see
system.mem_ctrls.rdPerTurnAround::samples          863                       # Reads before turning the bus around for writes
system.mem_ctrls.rdPerTurnAround::mean     172.236385                       # Reads before turning the bus around for writes
system.mem_ctrls.rdPerTurnAround::gmean     33.334285                       # Reads before turning the bus around for writes
system.mem_ctrls.rdPerTurnAround::stdev   4045.182963                       # Reads before turning the bus around for writes
system.mem_ctrls.rdPerTurnAround::0-4095          862     99.88%     99.88% # Reads before turning the bus around for writes
system.mem_ctrls.rdPerTurnAround::118784-122879            1      0.12%    100.00% # Reads before turning the bus around for writes
system.mem_ctrls.rdPerTurnAround::total           863                       # Reads before turning the bus around for writes
system.mem_ctrls.wrPerTurnAround::samples          863                       # Writes before turning the bus around for reads
system.mem_ctrls.wrPerTurnAround::mean      17.485516                       # Writes before turning the bus around for reads
system.mem_ctrls.wrPerTurnAround::gmean     17.462606                       # Writes before turning the bus around for reads
system.mem_ctrls.wrPerTurnAround::stdev      0.878705                       # Writes before turning the bus around for reads
system.mem_ctrls.wrPerTurnAround::16              223     25.84%     25.84% # Writes before turning the bus around for reads
system.mem_ctrls.wrPerTurnAround::18              638     73.93%     99.77% # Writes before turning the bus around for reads
system.mem_ctrls.wrPerTurnAround::19                2      0.23%    100.00% # Writes before turning the bus around for reads
system.mem_ctrls.wrPerTurnAround::total           863                       # Writes before turning the bus around for reads
system.mem_ctrls.bytesReadWrQ                     320                       # Total number of bytes read from write queue
system.mem_ctrls.bytesReadSys                 4756768                       # Total read bytes from the system interface side
system.mem_ctrls.bytesWrittenSys               729760                       # Total written bytes from the system interface side
system.mem_ctrls.avgRdBWSys                     25.02                       # Average system read bandwidth in MiByte/s
system.mem_ctrls.avgWrBWSys                      3.84                       # Average system write bandwidth in MiByte/s
system.mem_ctrls.totGap                  190117953500                       # Total gap between requests
system.mem_ctrls.avgGap                    1108856.91                       # Average gap between requests
system.mem_ctrls.requestorReadBytes::.cpu.inst        33600                       # Per-requestor bytes read from memory
system.mem_ctrls.requestorReadBytes::.cpu.data      4723008                       # Per-requestor bytes read from memory
system.mem_ctrls.requestorWriteBytes::.writebacks       482880                       # Per-requestor bytes write to memory
system.mem_ctrls.requestorReadRate::.cpu.inst 176730.262446727749                       # Per-requestor bytes read from memory rate (Bytes/sec)
system.mem_ctrls.requestorReadRate::.cpu.data 24842215.576726034284                       # Per-requestor bytes read from memory rate (Bytes/sec)
system.mem_ctrls.requestorWriteRate::.writebacks 2539866.343162972946                       # Per-requestor bytes write to memory rate (Bytes/sec)
system.mem_ctrls.requestorReadAccesses::.cpu.inst         1050                       # Per-requestor read serviced memory accesses
system.mem_ctrls.requestorReadAccesses::.cpu.data       147599                       # Per-requestor read serviced memory accesses
system.mem_ctrls.requestorWriteAccesses::.writebacks        22805                       # Per-requestor write serviced memory accesses
system.mem_ctrls.requestorReadTotalLat::.cpu.inst     26136750                       # Per-requestor read total memory access latency
[...]
system.mem_ctrls.dram.bw_total::.cpu.data     24843057                       # Total bandwidth to/from this memory (bytes/s)
system.mem_ctrls.dram.bw_total::total        28858200                       # Total bandwidth to/from this memory (bytes/s)
system.mem_ctrls.dram.readBursts               148644                       # Number of DRAM read bursts
system.mem_ctrls.dram.writeBursts               15090                       # Number of DRAM write bursts
system.mem_ctrls.dram.perBankRdBursts::0         9559                       # Per bank write bursts
system.mem_ctrls.dram.perBankRdBursts::1         9491                       # Per bank write bursts
system.mem_ctrls.dram.perBankRdBursts::2         9429                       # Per bank write bursts
system.mem_ctrls.dram.perBankRdBursts::3         9247                       # Per bank write bursts
system.mem_ctrls.dram.perBankRdBursts::4         9086                       # Per bank write bursts
system.mem_ctrls.dram.perBankRdBursts::5         9225                       # Per bank write bursts
system.mem_ctrls.dram.perBankRdBursts::6         8956                       # Per bank write bursts
system.mem_ctrls.dram.perBankRdBursts::7         9266                       # Per bank write bursts
system.mem_ctrls.dram.perBankRdBursts::8         9298                       # Per bank write bursts
system.mem_ctrls.dram.perBankRdBursts::9         9240                       # Per bank write bursts
system.mem_ctrls.dram.perBankRdBursts::10         9381                       # Per bank write bursts
system.mem_ctrls.dram.perBankRdBursts::11         9263                       # Per bank write bursts
system.mem_ctrls.dram.perBankRdBursts::12         9288                       # Per bank write bursts
system.mem_ctrls.dram.perBankRdBursts::13         9270                       # Per bank write bursts
system.mem_ctrls.dram.perBankRdBursts::14         9408                       # Per bank write bursts
system.mem_ctrls.dram.perBankRdBursts::15         9237                       # Per bank write bursts
system.mem_ctrls.dram.perBankWrBursts::0         1001                       # Per bank write bursts
system.mem_ctrls.dram.perBankWrBursts::1          997                       # Per bank write bursts
system.mem_ctrls.dram.perBankWrBursts::2         1033                       # Per bank write bursts
system.mem_ctrls.dram.perBankWrBursts::3          884                       # Per bank write bursts
system.mem_ctrls.dram.perBankWrBursts::4          885                       # Per bank write bursts
system.mem_ctrls.dram.perBankWrBursts::5          836                       # Per bank write bursts
system.mem_ctrls.dram.perBankWrBursts::6          844                       # Per bank write bursts
system.mem_ctrls.dram.perBankWrBursts::7          898                       # Per bank write bursts
system.mem_ctrls.dram.perBankWrBursts::8          971                       # Per bank write bursts
system.mem_ctrls.dram.perBankWrBursts::9          926                       # Per bank write bursts
system.mem_ctrls.dram.perBankWrBursts::10          952                       # Per bank write bursts
system.mem_ctrls.dram.perBankWrBursts::11          972                       # Per bank write bursts
system.mem_ctrls.dram.perBankWrBursts::12          945                       # Per bank write bursts
system.mem_ctrls.dram.perBankWrBursts::13         1016                       # Per bank write bursts
system.mem_ctrls.dram.perBankWrBursts::14          961                       # Per bank write bursts
system.mem_ctrls.dram.perBankWrBursts::15          969                       # Per bank write bursts
system.mem_ctrls.dram.totQLat               911841250                       # Total ticks spent queuing
system.mem_ctrls.dram.totBusLat             743220000                       # Total ticks spent in databus transfers
system.mem_ctrls.dram.totMemAccLat         3698916250                       # Total ticks spent from burst creation until serviced by the DRAM
system.mem_ctrls.dram.avgQLat                 6134.40                       # Average queueing delay per DRAM burst
system.mem_ctrls.dram.avgBusLat               5000.00                       # Average bus latency per DRAM burst
system.mem_ctrls.dram.avgMemAccLat           24884.40                       # Average memory access latency per DRAM burst
system.mem_ctrls.dram.readRowHits              118088                       # Number of row buffer hits during reads
system.mem_ctrls.dram.writeRowHits              12942                       # Number of row buffer hits during writes
system.mem_ctrls.dram.readRowHitRate            79.44                       # Row buffer hit rate for reads
system.mem_ctrls.dram.writeRowHitRate           85.77                       # Row buffer hit rate for writes
system.mem_ctrls.dram.bytesPerActivate::samples        32703                       # Bytes accessed per row activation
system.mem_ctrls.dram.bytesPerActivate::mean   320.424671                       # Bytes accessed per row activation
system.mem_ctrls.dram.bytesPerActivate::gmean   262.751976                       # Bytes accessed per row activation
system.mem_ctrls.dram.bytesPerActivate::stdev   226.794610                       # Bytes accessed per row activation
system.mem_ctrls.dram.bytesPerActivate::0-127         2686      8.21%      8.21% # Bytes accessed per row activation
system.mem_ctrls.dram.bytesPerActivate::128-255         3283     10.04%     18.25% # Bytes accessed per row activation
system.mem_ctrls.dram.bytesPerActivate::256-383        21002     64.22%     82.47% # Bytes accessed per row activation
system.mem_ctrls.dram.bytesPerActivate::384-511          417      1.28%     83.75% # Bytes accessed per row activation
system.mem_ctrls.dram.bytesPerActivate::512-639         1290      3.94%     87.69% # Bytes accessed per row activation
system.mem_ctrls.dram.bytesPerActivate::640-767          643      1.97%     89.66% # Bytes accessed per row activation
system.mem_ctrls.dram.bytesPerActivate::768-895         1550      4.74%     94.40% # Bytes accessed per row activation
system.mem_ctrls.dram.bytesPerActivate::896-1023          357      1.09%     95.49% # Bytes accessed per row activation
system.mem_ctrls.dram.bytesPerActivate::1024-1151         1475      4.51%    100.00% # Bytes accessed per row activation
system.mem_ctrls.dram.bytesPerActivate::total        32703                       # Bytes accessed per row activation
system.mem_ctrls.dram.bytesRead               9513216                       # Total number of bytes read from DRAM
system.mem_ctrls.dram.bytesWritten             965760                       # Total number of bytes written to DRAM
system.mem_ctrls.dram.avgRdBW               50.037892                       # Average DRAM read bandwidth in MiBytes/s
system.mem_ctrls.dram.avgWrBW                5.079733                       # Average DRAM write bandwidth in MiBytes/s
system.mem_ctrls.dram.peakBW                 12800.00                       # Theoretical peak bandwidth in MiByte/s
system.mem_ctrls.dram.busUtil                    0.43                       # Data bus utilization in percentage
system.mem_ctrls.dram.busUtilRead                0.39                       # Data bus utilization in percentage for reads
system.mem_ctrls.dram.busUtilWrite               0.04                       # Data bus utilization in percentage for writes
system.mem_ctrls.dram.pageHitRate               80.03                       # Row buffer hit rate, read and write combined
system.mem_ctrls.dram.power_state.pwrStateResidencyTicks::UNDEFINED 190120240500                       # Cumulative time (in ticks) in various power states
system.mem_ctrls.dram.rank0.actEnergy       115625160                       # Energy for activate commands per rank (pJ)
system.mem_ctrls.dram.rank0.preEnergy        61452435                       # Energy for precharge commands per rank (pJ)
system.mem_ctrls.dram.rank0.readEnergy      530209260                       # Energy for read commands per rank (pJ)
system.mem_ctrls.dram.rank0.writeEnergy      38513160                       # Energy for write commands per rank (pJ)
system.mem_ctrls.dram.rank0.refreshEnergy 15007664880.000002                       # Energy for refresh commands per rank (pJ)
system.mem_ctrls.dram.rank0.actBackEnergy  36974227620                       # Energy for active background per rank (pJ)
system.mem_ctrls.dram.rank0.preBackEnergy  41869980960                       # Energy for precharge background per rank (pJ)
system.mem_ctrls.dram.rank0.actPowerDownEnergy            0                       # Energy for active power-down per rank (pJ)
system.mem_ctrls.dram.rank0.prePowerDownEnergy            0                       # Energy for precharge power-down per rank (pJ)
system.mem_ctrls.dram.rank0.selfRefreshEnergy            0                       # Energy for self refresh per rank (pJ)
system.mem_ctrls.dram.rank0.totalEnergy   94597673475                       # Total energy per rank (pJ)
system.mem_ctrls.dram.rank0.averagePower   497.567609                       # Core power per rank (mW)
system.mem_ctrls.dram.rank0.totalIdleTime            0                       # Total Idle time Per DRAM Rank
system.mem_ctrls.dram.rank0.pwrStateTime::IDLE 108510304750                       # Time in different power states
system.mem_ctrls.dram.rank0.pwrStateTime::REF   6348420000                       # Time in different power states
system.mem_ctrls.dram.rank0.pwrStateTime::SREF            0                       # Time in different power states
system.mem_ctrls.dram.rank0.pwrStateTime::PRE_PDN            0                       # Time in different power states
system.mem_ctrls.dram.rank0.pwrStateTime::ACT  75261515750                       # Time in different power states
system.mem_ctrls.dram.rank0.pwrStateTime::ACT_PDN            0                       # Time in different power states
system.mem_ctrls.dram.rank1.actEnergy       117881400                       # Energy for activate commands per rank (pJ)
system.mem_ctrls.dram.rank1.preEnergy        62655450                       # Energy for precharge commands per rank (pJ)
system.mem_ctrls.dram.rank1.readEnergy      531108900                       # Energy for read commands per rank (pJ)
system.mem_ctrls.dram.rank1.writeEnergy      40256640                       # Energy for write commands per rank (pJ)
system.mem_ctrls.dram.rank1.refreshEnergy 15007664880.000002                       # Energy for refresh commands per rank (pJ)
system.mem_ctrls.dram.rank1.actBackEnergy  37346487780                       # Energy for active background per rank (pJ)
system.mem_ctrls.dram.rank1.preBackEnergy  41556498720                       # Energy for precharge background per rank (pJ)
system.mem_ctrls.dram.rank1.actPowerDownEnergy            0                       # Energy for active power-down per rank (pJ)
system.mem_ctrls.dram.rank1.prePowerDownEnergy            0                       # Energy for precharge power-down per rank (pJ)
system.mem_ctrls.dram.rank1.selfRefreshEnergy            0                       # Energy for self refresh per rank (pJ)
system.mem_ctrls.dram.rank1.totalEnergy   94662553770                       # Total energy per rank (pJ)
system.mem_ctrls.dram.rank1.averagePower   497.908868                       # Core power per rank (mW)
system.mem_ctrls.dram.rank1.totalIdleTime            0                       # Total Idle time Per DRAM Rank
system.mem_ctrls.dram.rank1.pwrStateTime::IDLE 107693038250                       # Time in different power states
system.mem_ctrls.dram.rank1.pwrStateTime::REF   6348420000                       # Time in different power states
system.mem_ctrls.dram.rank1.pwrStateTime::SREF            0                       # Time in different power states
system.mem_ctrls.dram.rank1.pwrStateTime::PRE_PDN            0                       # Time in different power states
system.mem_ctrls.dram.rank1.pwrStateTime::ACT  76078782250                       # Time in different power states
system.mem_ctrls.dram.rank1.pwrStateTime::ACT_PDN            0                       # Time in different power states
system.mem_ctrls.power_state.pwrStateResidencyTicks::UNDEFINED 190120240500                       # Cumulative time (in ticks) in various power states
system.membus.trans_dist::ReadResp              11094                       # Transaction distribution
system.membus.trans_dist::WritebackDirty        22805                       # Transaction distribution
system.membus.trans_dist::CleanEvict              141                       # Transaction distribution
system.membus.trans_dist::ReadExReq            137555                       # Transaction distribution
system.membus.trans_dist::ReadExResp           137555                       # Transaction distribution
system.membus.trans_dist::ReadSharedReq         11094                       # Transaction distribution
system.membus.pkt_count_system.l2.mem_side_port::system.mem_ctrls.port       320244                       # Packet count per connected requestor and responder (bytes)
system.membus.pkt_count_system.l2.mem_side_port::total       320244                       # Packet count per connected requestor and responder (bytes)
system.membus.pkt_count::total                 320244                       # Packet count per connected requestor and responder (bytes)
system.membus.pkt_size_system.l2.mem_side_port::system.mem_ctrls.port      5486528                       # Cumulative packet size per connected requestor and responder (bytes)
system.membus.pkt_size_system.l2.mem_side_port::total      5486528                       # Cumulative packet size per connected requestor and responder (bytes)
system.membus.pkt_size::total                 5486528                       # Cumulative packet size per connected requestor and responder (bytes)
system.membus.snoops                                0                       # Total snoops (count)
system.membus.snoopTraffic                          0                       # Total snoop traffic (bytes)
system.membus.snoop_fanout::samples            148649                       # Request fanout histogram
system.membus.snoop_fanout::mean                    0                       # Request fanout histogram
system.membus.snoop_fanout::stdev                   0                       # Request fanout histogram
system.membus.snoop_fanout::underflows              0      0.00%      0.00% # Request fanout histogram
system.membus.snoop_fanout::0                  148649    100.00%    100.00% # Request fanout histogram
system.membus.snoop_fanout::1                       0      0.00%    100.00% # Request fanout histogram
system.membus.snoop_fanout::overflows               0      0.00%    100.00% # Request fanout histogram
system.membus.snoop_fanout::min_value               0                       # Request fanout histogram
system.membus.snoop_fanout::max_value               0                       # Request fanout histogram
system.membus.snoop_fanout::total              148649                       # Request fanout histogram
system.membus.power_state.pwrStateResidencyTicks::UNDEFINED 190120240500                       # Cumulative time (in ticks) in various power states
system.membus.reqLayer2.occupancy           222864000                       # Layer occupancy (ticks)
system.membus.reqLayer2.utilization               0.1                       # Layer utilization (%)
system.membus.respLayer1.occupancy          490564750                       # Layer occupancy (ticks)
system.membus.respLayer1.utilization              0.3                       # Layer utilization (%)
system.tol2bus.trans_dist::ReadResp             25615                       # Transaction distribution
system.tol2bus.trans_dist::WritebackDirty       177853                       # Transaction distribution
system.tol2bus.trans_dist::WritebackClean           21                       # Transaction distribution
system.tol2bus.trans_dist::CleanEvict            4016                       # Transaction distribution
system.tol2bus.trans_dist::ReadExReq           137556                       # Transaction distribution
system.tol2bus.trans_dist::ReadExResp          137556                       # Transaction distribution
system.tol2bus.trans_dist::ReadCleanReq          1050                       # Transaction distribution
system.tol2bus.trans_dist::ReadSharedReq        24565                       # Transaction distribution
system.tol2bus.pkt_count_system.cpu.icache.mem_side_port::system.l2.cpu_side_port         2121                       # Packet count per connected requestor and responder (bytes)
system.tol2bus.pkt_count_system.cpu.dcache.mem_side_port::system.l2.cpu_side_port       482267                       # Packet count per connected requestor and responder (bytes)
system.tol2bus.pkt_count::total                484388                       # Packet count per connected requestor and responder (bytes)
system.tol2bus.pkt_size_system.cpu.icache.mem_side_port::system.l2.cpu_side_port        34272                       # Cumulative packet size per connected requestor and responder (bytes)
system.tol2bus.pkt_size_system.cpu.dcache.mem_side_port::system.l2.cpu_side_port     10149408                       # Cumulative packet size per connected requestor and responder (bytes)
system.tol2bus.pkt_size::total               10183680                       # Cumulative packet size per connected requestor and responder (bytes)
system.tol2bus.snoops                           23844                       # Total snoops (count)
system.tol2bus.snoopTraffic                    729760                       # Total snoop traffic (bytes)
system.tol2bus.snoop_fanout::samples           187015                       # Request fanout histogram
system.tol2bus.snoop_fanout::mean            0.004903                       # Request fanout histogram
system.tol2bus.snoop_fanout::stdev           0.069852                       # Request fanout histogram
system.tol2bus.snoop_fanout::underflows             0      0.00%      0.00% # Request fanout histogram
system.tol2bus.snoop_fanout::0                 186098     99.51%     99.51% # Request fanout histogram
system.tol2bus.snoop_fanout::1                    917      0.49%    100.00% # Request fanout histogram
system.tol2bus.snoop_fanout::2                      0      0.00%    100.00% # Request fanout histogram
system.tol2bus.snoop_fanout::3                      0      0.00%    100.00% # Request fanout histogram
system.tol2bus.snoop_fanout::4                      0      0.00%    100.00% # Request fanout histogram
system.tol2bus.snoop_fanout::overflows              0      0.00%    100.00% # Request fanout histogram
system.tol2bus.snoop_fanout::min_value              0                       # Request fanout histogram
system.tol2bus.snoop_fanout::max_value              1                       # Request fanout histogram
system.tol2bus.snoop_fanout::total             187015                       # Request fanout histogram
system.tol2bus.power_state.pwrStateResidencyTicks::UNDEFINED 190120240500                       # Cumulative time (in ticks) in various power states
system.tol2bus.reqLayer0.occupancy          238143000                       # Layer occupancy (ticks)
system.tol2bus.reqLayer0.utilization              0.1                       # Layer utilization (%)
system.tol2bus.respLayer0.occupancy           1050000                       # Layer occupancy (ticks)
system.tol2bus.respLayer0.utilization             0.0                       # Layer utilization (%)
system.tol2bus.respLayer1.occupancy         162121000                       # Layer occupancy (ticks)
system.tol2bus.respLayer1.utilization             0.1                       # Layer utilization (%)
system.voltage_domain.voltage                       1                       # Voltage in Volts

---------- End Simulation Statistics   ----------
