
---------- Begin Simulation Statistics ----------
final_tick                               192457459500                       # Number of ticks from beginning of simulation (restored from checkpoints and never reset)
host_inst_rate                                 822175                       # Simulator instruction rate (inst/s)
host_mem_usage                                 673612                       # Number of bytes of host memory used
host_op_rate                                  1063511                       # Simulator op (including micro ops) rate (op/s)
host_seconds                                   121.63                       # Real time elapsed on the host
host_tick_rate                             1582334690                       # Simulator tick rate (ticks/s)
sim_freq                                 1000000000000                       # Frequency of simulated ticks
sim_insts                                   100000000                       # Number of instructions simulated
sim_ops                                     129353490                       # Number of ops (including micro ops) simulated
sim_seconds                                  0.192457                       # Number of seconds simulated
sim_ticks                                192457459500                       # Number of ticks simulated
system.cpu.Branches                           5555718                       # Number of branches fetched
system.cpu.committedInsts                   100000000                       # Number of instructions committed
system.cpu.committedOps                     129353490                       # Number of ops (including micro ops) committed
system.cpu.idle_fraction                            0                       # Percentage of idle cycles
system.cpu.not_idle_fraction                        1                       # Percentage of non-idle cycles
system.cpu.numCycles                        384914919                       # number of cpu cycles simulated
system.cpu.numWorkItemsCompleted                    0                       # number of work items this cpu completed
system.cpu.numWorkItemsStarted                      0                       # number of work items this cpu started
system.cpu.num_busy_cycles                  384914919                       # Number of busy cycles
system.cpu.num_cc_register_reads             37536336                       # number of times the CC registers were read
system.cpu.num_cc_register_writes            52077182                       # number of times the CC registers were written
system.cpu.num_conditional_control_insts      5078798                       # number of instructions that are conditional controls
system.cpu.num_fp_alu_accesses                5734498                       # Number of float alu accesses
system.cpu.num_fp_insts                       5734498                       # number of float instructions
system.cpu.num_fp_register_reads              4648737                       # number of times the floating registers were read
system.cpu.num_fp_register_writes             4867956                       # number of times the floating registers were written
system.cpu.num_func_calls                      317051                       # number of times a function call or return occured
system.cpu.num_idle_cycles                          0                       # Number of idle cycles
system.cpu.num_int_alu_accesses             125241022                       # Number of integer alu accesses
system.cpu.num_int_insts                    125241022                       # number of integer instructions
system.cpu.num_int_register_reads           293410038                       # number of times the integer registers were read
system.cpu.num_int_register_writes          113873586                       # number of times the integer registers were written
system.cpu.num_load_insts                    43555354                       # Number of load instructions
system.cpu.num_mem_refs                      50714744                       # number of memory refs
system.cpu.num_store_insts                    7159390                       # Number of store instructions
system.cpu.num_vec_alu_accesses                     0                       # Number of vector alu accesses
system.cpu.num_vec_insts                            0                       # number of vector instructions
system.cpu.num_vec_register_reads                   0                       # number of times the vector registers were read
system.cpu.num_vec_register_writes                  0                       # number of times the vector registers were written
system.cpu.op_class::No_OpClass                550507      0.43%      0.43% # Class of executed instruction
system.cpu.op_class::IntAlu                  73097378     56.50%     56.92% # Class of executed instruction
system.cpu.op_class::IntMult                   132844      0.10%     57.02% # Class of executed instruction
system.cpu.op_class::IntDiv                   1253858      0.97%     57.99% # Class of executed instruction
system.cpu.op_class::FloatAdd                 1903691      1.47%     59.46% # Class of executed instruction
system.cpu.op_class::FloatCmp                       0      0.00%     59.46% # Class of executed instruction
system.cpu.op_class::FloatCvt                       0      0.00%     59.46% # Class of executed instruction
system.cpu.op_class::FloatMult                      0      0.00%     59.46% # Class of executed instruction
system.cpu.op_class::FloatMultAcc                   0      0.00%     59.46% # Class of executed instruction
system.cpu.op_class::FloatDiv                       0      0.00%     59.46% # Class of executed instruction
system.cpu.op_class::FloatMisc                      0      0.00%     59.46% # Class of executed instruction
system.cpu.op_class::FloatSqrt                      0      0.00%     59.46% # Class of executed instruction
system.cpu.op_class::SimdAdd                      494      0.00%     59.47% # Class of executed instruction
system.cpu.op_class::SimdAddAcc                     0      0.00%     59.47% # Class of executed instruction
system.cpu.op_class::SimdAlu                   218994      0.17%     59.63% # Class of executed instruction
system.cpu.op_class::SimdCmp                      180      0.00%     59.63% # Class of executed instruction
system.cpu.op_class::SimdCvt                   180632      0.14%     59.77% # Class of executed instruction
system.cpu.op_class::SimdMisc                  402789      0.31%     60.09% # Class of executed instruction
system.cpu.op_class::SimdMult                       0      0.00%     60.09% # Class of executed instruction
system.cpu.op_class::SimdMultAcc                    0      0.00%     60.09% # Class of executed instruction
system.cpu.op_class::SimdShift                     34      0.00%     60.09% # Class of executed instruction
system.cpu.op_class::SimdShiftAcc                   0      0.00%     60.09% # Class of executed instruction
system.cpu.op_class::SimdDiv                        0      0.00%     60.09% # Class of executed instruction
system.cpu.op_class::SimdSqrt                       0      0.00%     60.09% # Class of executed instruction
system.cpu.op_class::SimdFloatAdd              322927      0.25%     60.34% # Class of executed instruction
system.cpu.op_class::SimdFloatAlu                   0      0.00%     60.34% # Class of executed instruction
system.cpu.op_class::SimdFloatCmp                   0      0.00%     60.34% # Class of executed instruction
system.cpu.op_class::SimdFloatCvt              493438      0.38%     60.72% # Class of executed instruction
system.cpu.op_class::SimdFloatDiv               62796      0.05%     60.77% # Class of executed instruction
system.cpu.op_class::SimdFloatMisc                  0      0.00%     60.77% # Class of executed instruction
system.cpu.op_class::SimdFloatMult              49007      0.04%     60.80% # Class of executed instruction
system.cpu.op_class::SimdFloatMultAcc               0      0.00%     60.80% # Class of executed instruction
system.cpu.op_class::SimdFloatSqrt                  0      0.00%     60.80% # Class of executed instruction
system.cpu.op_class::SimdReduceAdd                  0      0.00%     60.80% # Class of executed instruction
system.cpu.op_class::SimdReduceAlu                  0      0.00%     60.80% # Class of executed instruction
system.cpu.op_class::SimdReduceCmp                  0      0.00%     60.80% # Class of executed instruction
system.cpu.op_class::SimdFloatReduceAdd             0      0.00%     60.80% # Class of executed instruction
system.cpu.op_class::SimdFloatReduceCmp             0      0.00%     60.80% # Class of executed instruction
system.cpu.op_class::SimdAes                        0      0.00%     60.80% # Class of executed instruction
system.cpu.op_class::SimdAesMix                     0      0.00%     60.80% # Class of executed instruction
system.cpu.op_class::SimdSha1Hash                   0      0.00%     60.80% # Class of executed instruction
system.cpu.op_class::SimdSha1Hash2                  0      0.00%     60.80% # Class of executed instruction
system.cpu.op_class::SimdSha256Hash                 0      0.00%     60.80% # Class of executed instruction
system.cpu.op_class::SimdSha256Hash2                0      0.00%     60.80% # Class of executed instruction
system.cpu.op_class::SimdShaSigma2                  0      0.00%     60.80% # Class of executed instruction
system.cpu.op_class::SimdShaSigma3                  0      0.00%     60.80% # Class of executed instruction
system.cpu.op_class::SimdPredAlu                    0      0.00%     60.80% # Class of executed instruction
system.cpu.op_class::MemRead                 42068750     32.51%     93.32% # Class of executed instruction
system.cpu.op_class::MemWrite                 6726912      5.20%     98.52% # Class of executed instruction
system.cpu.op_class::FloatMemRead             1486604      1.15%     99.67% # Class of executed instruction
system.cpu.op_class::FloatMemWrite             432478      0.33%    100.00% # Class of executed instruction
system.cpu.op_class::IprAccess                      0      0.00%    100.00% # Class of executed instruction
system.cpu.op_class::InstPrefetch                   0      0.00%    100.00% # Class of executed instruction
system.cpu.op_class::total                  129384313                       # Class of executed instruction
system.cpu.workload.numSyscalls                    35                       # Number of system calls
system.membus.snoop_filter.hit_multi_requests            0                       # Number of requests hitting in the snoop filter with multiple (>1) holders of the requested data.
system.membus.snoop_filter.hit_multi_snoops            0                       # Number of snoops hitting in the snoop filter with multiple (>1) holders of the requested data.
system.membus.snoop_filter.hit_single_requests         3640                       # Number of requests hitting in the snoop filter with a single holder of the requested data.
system.membus.snoop_filter.hit_single_snoops            0                       # Number of snoops hitting in the snoop filter with a single holder of the requested data.
system.membus.snoop_filter.tot_requests         17874                       # Total number of requests made to the snoop filter.
system.membus.snoop_filter.tot_snoops               0                       # Total number of snoops made to the snoop filter.
system.tol2bus.snoop_filter.hit_multi_requests            0                       # Number of requests hitting in the snoop filter with multiple (>1) holders of the requested data.
system.tol2bus.snoop_filter.hit_multi_snoops            0                       # Number of snoops hitting in the snoop filter with multiple (>1) holders of the requested data.
system.tol2bus.snoop_filter.hit_single_requests        60809                       # Number of requests hitting in the snoop filter with a single holder of the requested data.
system.tol2bus.snoop_filter.hit_single_snoops         7431                       # Number of snoops hitting in the snoop filter with a single holder of the requested data.
system.tol2bus.snoop_filter.tot_requests       127897                       # Total number of requests made to the snoop filter.
system.tol2bus.snoop_filter.tot_snoops           7431                       # Total number of snoops made to the snoop filter.
system.clk_domain.clock                          1000                       # Clock period in ticks
system.cpu.dcache.demand_hits::.cpu.data     50911213                       # number of demand (read+write) hits
system.cpu.dcache.demand_hits::total         50911213                       # number of demand (read+write) hits
system.cpu.dcache.overall_hits::.cpu.data     50923429                       # number of overall hits
system.cpu.dcache.overall_hits::total        50923429                       # number of overall hits
system.cpu.dcache.demand_misses::.cpu.data        61446                       # number of demand (read+write) misses
system.cpu.dcache.demand_misses::total          61446                       # number of demand (read+write) misses
system.cpu.dcache.overall_misses::.cpu.data        64584                       # number of overall misses
system.cpu.dcache.overall_misses::total         64584                       # number of overall misses
system.cpu.dcache.demand_miss_latency::.cpu.data   1573973500                       # number of demand (read+write) miss cycles
system.cpu.dcache.demand_miss_latency::total   1573973500                       # number of demand (read+write) miss cycles
system.cpu.dcache.overall_miss_latency::.cpu.data   1573973500                       # number of overall miss cycles
system.cpu.dcache.overall_miss_latency::total   1573973500                       # number of overall miss cycles
system.cpu.dcache.demand_accesses::.cpu.data     50972659                       # number of demand (read+write) accesses
system.cpu.dcache.demand_accesses::total     50972659                       # number of demand (read+write) accesses
system.cpu.dcache.overall_accesses::.cpu.data     50988013                       # number of overall (read+write) accesses
system.cpu.dcache.overall_accesses::total     50988013                       # number of overall (read+write) accesses
system.cpu.dcache.demand_miss_rate::.cpu.data     0.001205                       # miss rate for demand accesses
system.cpu.dcache.demand_miss_rate::total     0.001205                       # miss rate for demand accesses
system.cpu.dcache.overall_miss_rate::.cpu.data     0.001267                       # miss rate for overall accesses
system.cpu.dcache.overall_miss_rate::total     0.001267                       # miss rate for overall accesses
system.cpu.dcache.demand_avg_miss_latency::.cpu.data 25615.556749                       # average overall miss latency
system.cpu.dcache.demand_avg_miss_latency::total 25615.556749                       # average overall miss latency
system.cpu.dcache.overall_avg_miss_latency::.cpu.data 24370.951010                       # average overall miss latency
system.cpu.dcache.overall_avg_miss_latency::total 24370.951010                       # average overall miss latency
system.cpu.dcache.blocked_cycles::no_mshrs          464                       # number of cycles access was blocked
system.cpu.dcache.blocked_cycles::no_targets            0                       # number of cycles access was blocked
system.cpu.dcache.blocked::no_mshrs                 1                       # number of cycles access was blocked
system.cpu.dcache.blocked::no_targets               0                       # number of cycles access was blocked
system.cpu.dcache.avg_blocked_cycles::no_mshrs          464                       # average number of cycles each access was blocked
system.cpu.dcache.avg_blocked_cycles::no_targets          nan                       # average number of cycles each access was blocked
system.cpu.dcache.writebacks::.writebacks        58713                       # number of writebacks
system.cpu.dcache.writebacks::total             58713                       # number of writebacks
system.cpu.dcache.demand_mshr_misses::.cpu.data        61446                       # number of demand (read+write) MSHR misses
system.cpu.dcache.demand_mshr_misses::total        61446                       # number of demand (read+write) MSHR misses
system.cpu.dcache.overall_mshr_misses::.cpu.data        64574                       # number of overall MSHR misses
system.cpu.dcache.overall_mshr_misses::total        64574                       # number of overall MSHR misses
system.cpu.dcache.demand_mshr_miss_latency::.cpu.data   1512527500                       # number of demand (read+write) MSHR miss cycles
system.cpu.dcache.demand_mshr_miss_latency::total   1512527500                       # number of demand (read+write) MSHR miss cycles
system.cpu.dcache.overall_mshr_miss_latency::.cpu.data   1557983000                       # number of overall MSHR miss cycles
system.cpu.dcache.overall_mshr_miss_latency::total   1557983000                       # number of overall MSHR miss cycles
system.cpu.dcache.demand_mshr_miss_rate::.cpu.data     0.001205                       # mshr miss rate for demand accesses
system.cpu.dcache.demand_mshr_miss_rate::total     0.001205                       # mshr miss rate for demand accesses
system.cpu.dcache.overall_mshr_miss_rate::.cpu.data     0.001266                       # mshr miss rate for overall accesses
system.cpu.dcache.overall_mshr_miss_rate::total     0.001266                       # mshr miss rate for overall accesses
system.cpu.dcache.demand_avg_mshr_miss_latency::.cpu.data 24615.556749                       # average overall mshr miss latency
system.cpu.dcache.demand_avg_mshr_miss_latency::total 24615.556749                       # average overall mshr miss latency
system.cpu.dcache.overall_avg_mshr_miss_latency::.cpu.data 24127.094496                       # average overall mshr miss latency
system.cpu.dcache.overall_avg_mshr_miss_latency::total 24127.094496                       # average overall mshr miss latency
system.cpu.dcache.replacements                  60478                       # number of replacements
system.cpu.dcache.ReadReq_hits::.cpu.data     43831187                       # number of ReadReq hits
system.cpu.dcache.ReadReq_hits::total        43831187                       # number of ReadReq hits
system.cpu.dcache.ReadReq_misses::.cpu.data        12794                       # number of ReadReq misses
system.cpu.dcache.ReadReq_misses::total         12794                       # number of ReadReq misses
system.cpu.dcache.ReadReq_miss_latency::.cpu.data    256376500                       # number of ReadReq miss cycles
system.cpu.dcache.ReadReq_miss_latency::total    256376500                       # number of ReadReq miss cycles
system.cpu.dcache.ReadReq_accesses::.cpu.data     43843981                       # number of ReadReq accesses(hits+misses)
system.cpu.dcache.ReadReq_accesses::total     43843981                       # number of ReadReq accesses(hits+misses)
system.cpu.dcache.ReadReq_miss_rate::.cpu.data     0.000292                       # miss rate for ReadReq accesses
system.cpu.dcache.ReadReq_miss_rate::total     0.000292                       # miss rate for ReadReq accesses
system.cpu.dcache.ReadReq_avg_miss_latency::.cpu.data 20038.807253                       # average ReadReq miss latency
system.cpu.dcache.ReadReq_avg_miss_latency::total 20038.807253                       # average ReadReq miss latency
system.cpu.dcache.ReadReq_mshr_misses::.cpu.data        12794                       # number of ReadReq MSHR misses
system.cpu.dcache.ReadReq_mshr_misses::total        12794                       # number of ReadReq MSHR misses
system.cpu.dcache.ReadReq_mshr_miss_latency::.cpu.data    243582500                       # number of ReadReq MSHR miss cycles
system.cpu.dcache.ReadReq_mshr_miss_latency::total    243582500                       # number of ReadReq MSHR miss cycles
system.cpu.dcache.ReadReq_mshr_miss_rate::.cpu.data     0.000292                       # mshr miss rate for ReadReq accesses
system.cpu.dcache.ReadReq_mshr_miss_rate::total     0.000292                       # mshr miss rate for ReadReq accesses
system.cpu.dcache.ReadReq_avg_mshr_miss_latency::.cpu.data 19038.807253                       # average ReadReq mshr miss latency
system.cpu.dcache.ReadReq_avg_mshr_miss_latency::total 19038.807253                       # average ReadReq mshr miss latency
system.cpu.dcache.WriteReq_hits::.cpu.data      7080026                       # number of WriteReq hits
system.cpu.dcache.WriteReq_hits::total        7080026                       # number of WriteReq hits
system.cpu.dcache.WriteReq_misses::.cpu.data        48652                       # number of WriteReq misses
system.cpu.dcache.WriteReq_misses::total        48652                       # number of WriteReq misses
system.cpu.dcache.WriteReq_miss_latency::.cpu.data   1317597000                       # number of WriteReq miss cycles
system.cpu.dcache.WriteReq_miss_latency::total   1317597000                       # number of WriteReq miss cycles
system.cpu.dcache.WriteReq_accesses::.cpu.data      7128678                       # number of WriteReq accesses(hits+misses)
system.cpu.dcache.WriteReq_accesses::total      7128678                       # number of WriteReq accesses(hits+misses)
system.cpu.dcache.WriteReq_miss_rate::.cpu.data     0.006825                       # miss rate for WriteReq accesses
system.cpu.dcache.WriteReq_miss_rate::total     0.006825                       # miss rate for WriteReq accesses
system.cpu.dcache.WriteReq_avg_miss_latency::.cpu.data 27082.072679                       # average WriteReq miss latency
system.cpu.dcache.WriteReq_avg_miss_latency::total 27082.072679                       # average WriteReq miss latency
system.cpu.dcache.WriteReq_mshr_misses::.cpu.data        48652                       # number of WriteReq MSHR misses
system.cpu.dcache.WriteReq_mshr_misses::total        48652                       # number of WriteReq MSHR misses
system.cpu.dcache.WriteReq_mshr_miss_latency::.cpu.data   1268945000                       # number of WriteReq MSHR miss cycles
system.cpu.dcache.WriteReq_mshr_miss_latency::total   1268945000                       # number of WriteReq MSHR miss cycles
system.cpu.dcache.WriteReq_mshr_miss_rate::.cpu.data     0.006825                       # mshr miss rate for WriteReq accesses
system.cpu.dcache.WriteReq_mshr_miss_rate::total     0.006825                       # mshr miss rate for WriteReq accesses
system.cpu.dcache.WriteReq_avg_mshr_miss_latency::.cpu.data 26082.072679                       # average WriteReq mshr miss latency
system.cpu.dcache.WriteReq_avg_mshr_miss_latency::total 26082.072679                       # average WriteReq mshr miss latency
system.cpu.dcache.SoftPFReq_hits::.cpu.data        12216                       # number of SoftPFReq hits
system.cpu.dcache.SoftPFReq_hits::total         12216                       # number of SoftPFReq hits
system.cpu.dcache.SoftPFReq_misses::.cpu.data         3138                       # number of SoftPFReq misses
system.cpu.dcache.SoftPFReq_misses::total         3138                       # number of SoftPFReq misses
system.cpu.dcache.SoftPFReq_accesses::.cpu.data        15354                       # number of SoftPFReq accesses(hits+misses)
system.cpu.dcache.SoftPFReq_accesses::total        15354                       # number of SoftPFReq accesses(hits+misses)
system.cpu.dcache.SoftPFReq_miss_rate::.cpu.data     0.204377                       # miss rate for SoftPFReq accesses
system.cpu.dcache.SoftPFReq_miss_rate::total     0.204377                       # miss rate for SoftPFReq accesses
system.cpu.dcache.SoftPFReq_mshr_misses::.cpu.data         3128                       # number of SoftPFReq MSHR misses
system.cpu.dcache.SoftPFReq_mshr_misses::total         3128                       # number of SoftPFReq MSHR misses
system.cpu.dcache.SoftPFReq_mshr_miss_latency::.cpu.data     45455500                       # number of SoftPFReq MSHR miss cycles
system.cpu.dcache.SoftPFReq_mshr_miss_latency::total     45455500                       # number of SoftPFReq MSHR miss cycles
system.cpu.dcache.SoftPFReq_mshr_miss_rate::.cpu.data     0.203725                       # mshr miss rate for SoftPFReq accesses
system.cpu.dcache.SoftPFReq_mshr_miss_rate::total     0.203725                       # mshr miss rate for SoftPFReq accesses
system.cpu.dcache.SoftPFReq_avg_mshr_miss_latency::.cpu.data 14531.809463                       # average SoftPFReq mshr miss latency
system.cpu.dcache.SoftPFReq_avg_mshr_miss_latency::total 14531.809463                       # average SoftPFReq mshr miss latency
system.cpu.dcache.power_state.pwrStateResidencyTicks::UNDEFINED 192457459500                       # Cumulative time (in ticks) in various power states
system.cpu.dcache.tags.tagsinuse          4042.835912                       # Cycle average of tags in use
system.cpu.dcache.tags.total_refs            50988003                       # Total number of references to valid blocks.
system.cpu.dcache.tags.sampled_refs             64574                       # Sample count of references to valid blocks.
system.cpu.dcache.tags.avg_refs            789.605770                       # Average number of references to valid blocks.
system.cpu.dcache.tags.warmup_cycle            177500                       # Cycle when the warmup percentage was hit.
system.cpu.dcache.tags.occ_blocks::.cpu.data  4042.835912                       # Average occupied blocks per requestor
system.cpu.dcache.tags.occ_percent::.cpu.data     0.987020                       # Average percentage of cache occupancy
system.cpu.dcache.tags.occ_percent::total     0.987020                       # Average percentage of cache occupancy
system.cpu.dcache.tags.occ_task_id_blocks::1024         4096                       # Occupied blocks per task id
system.cpu.dcache.tags.age_task_id_blocks_1024::1            1                       # Occupied blocks per task id
system.cpu.dcache.tags.age_task_id_blocks_1024::2           38                       # Occupied blocks per task id
system.cpu.dcache.tags.age_task_id_blocks_1024::3          676                       # Occupied blocks per task id
system.cpu.dcache.tags.age_task_id_blocks_1024::4         3381                       # Occupied blocks per task id
system.cpu.dcache.tags.occ_task_id_percent::1024            1                       # Percentage of cache occupancy per task id
system.cpu.dcache.tags.tag_accesses         102040600                       # Number of tag accesses
system.cpu.dcache.tags.data_accesses        102040600                       # Number of data accesses
system.cpu.dcache.tags.power_state.pwrStateResidencyTicks::UNDEFINED 192457459500                       # Cumulative time (in ticks) in various power states
system.cpu.dtb.rdAccesses                    43859336                       # TLB accesses on read requests
system.cpu.dtb.wrAccesses                     7159465                       # TLB accesses on write requests
system.cpu.dtb.rdMisses                           114                       # TLB misses on read requests
system.cpu.dtb.wrMisses                           271                       # TLB misses on write requests
system.cpu.dtb.walker.power_state.pwrStateResidencyTicks::UNDEFINED 192457459500                       # Cumulative time (in ticks) in various power states
system.cpu.dtb_walker_cache.blocked_cycles::no_mshrs            0                       # number of cycles access was blocked
system.cpu.dtb_walker_cache.blocked_cycles::no_targets            0                       # number of cycles access was blocked
system.cpu.dtb_walker_cache.blocked::no_mshrs            0                       # number of cycles access was blocked
system.cpu.dtb_walker_cache.blocked::no_targets            0                       # number of cycles access was blocked
system.cpu.dtb_walker_cache.avg_blocked_cycles::no_mshrs          nan                       # average number of cycles each access was blocked
system.cpu.dtb_walker_cache.avg_blocked_cycles::no_targets          nan                       # average number of cycles each access was blocked
system.cpu.dtb_walker_cache.replacements            0                       # number of replacements
system.cpu.dtb_walker_cache.power_state.pwrStateResidencyTicks::UNDEFINED 192457459500                       # Cumulative time (in ticks) in various power states
system.cpu.dtb_walker_cache.tags.tagsinuse            0                       # Cycle average of tags in use
system.cpu.dtb_walker_cache.tags.total_refs            0                       # Total number of references to valid blocks.
system.cpu.dtb_walker_cache.tags.sampled_refs            0                       # Sample count of references to valid blocks.
system.cpu.dtb_walker_cache.tags.avg_refs          nan                       # Average number of references to valid blocks.
system.cpu.dtb_walker_cache.tags.warmup_cycle            0                       # Cycle when the warmup percentage was hit.
system.cpu.dtb_walker_cache.tags.tag_accesses            0                       # Number of tag accesses
system.cpu.dtb_walker_cache.tags.data_accesses            0                       # Number of data accesses
system.cpu.dtb_walker_cache.tags.power_state.pwrStateResidencyTicks::UNDEFINED 192457459500                       # Cumulative time (in ticks) in various power states
system.cpu.icache.demand_hits::.cpu.inst    139916546                       # number of demand (read+write) hits
system.cpu.icache.demand_hits::total        139916546                       # number of demand (read+write) hits
system.cpu.icache.overall_hits::.cpu.inst    139916546                       # number of overall hits
system.cpu.icache.overall_hits::total       139916546                       # number of overall hits
system.cpu.icache.demand_misses::.cpu.inst         2514                       # number of demand (read+write) misses
system.cpu.icache.demand_misses::total           2514                       # number of demand (read+write) misses
system.cpu.icache.overall_misses::.cpu.inst         2514                       # number of overall misses
system.cpu.icache.overall_misses::total          2514                       # number of overall misses
system.cpu.icache.demand_miss_latency::.cpu.inst    192414000                       # number of demand (read+write) miss cycles
system.cpu.icache.demand_miss_latency::total    192414000                       # number of demand (read+write) miss cycles
system.cpu.icache.overall_miss_latency::.cpu.inst    192414000                       # number of overall miss cycles
system.cpu.icache.overall_miss_latency::total    192414000                       # number of overall miss cycles
system.cpu.icache.demand_accesses::.cpu.inst    139919060                       # number of demand (read+write) accesses
system.cpu.icache.demand_accesses::total    139919060                       # number of demand (read+write) accesses
system.cpu.icache.overall_accesses::.cpu.inst    139919060                       # number of overall (read+write) accesses
system.cpu.icache.overall_accesses::total    139919060                       # number of overall (read+write) accesses
system.cpu.icache.demand_miss_rate::.cpu.inst     0.000018                       # miss rate for demand accesses
system.cpu.icache.demand_miss_rate::total     0.000018                       # miss rate for demand accesses
system.cpu.icache.overall_miss_rate::.cpu.inst     0.000018                       # miss rate for overall accesses
system.cpu.icache.overall_miss_rate::total     0.000018                       # miss rate for overall accesses
system.cpu.icache.demand_avg_miss_latency::.cpu.inst 76536.992840                       # average overall miss latency
system.cpu.icache.demand_avg_miss_latency::total 76536.992840                       # average overall miss latency
system.cpu.icache.overall_avg_miss_latency::.cpu.inst 76536.992840                       # average overall miss latency
system.cpu.icache.overall_avg_miss_latency::total 76536.992840                       # average overall miss latency
system.cpu.icache.blocked_cycles::no_mshrs            0                       # number of cycles access was blocked
system.cpu.icache.blocked_cycles::no_targets            0                       # number of cycles access was blocked
system.cpu.icache.blocked::no_mshrs                 0                       # number of cycles access was blocked
system.cpu.icache.blocked::no_targets               0                       # number of cycles access was blocked
system.cpu.icache.avg_blocked_cycles::no_mshrs          nan                       # average number of cycles each access was blocked
system.cpu.icache.avg_blocked_cycles::no_targets          nan                       # average number of cycles each access was blocked
system.cpu.icache.writebacks::.writebacks          331                       # number of writebacks
system.cpu.icache.writebacks::total               331                       # number of writebacks
system.cpu.icache.demand_mshr_misses::.cpu.inst         2514                       # number of demand (read+write) MSHR misses
system.cpu.icache.demand_mshr_misses::total         2514                       # number of demand (read+write) MSHR misses
system.cpu.icache.overall_mshr_misses::.cpu.inst         2514                       # number of overall MSHR misses
system.cpu.icache.overall_mshr_misses::total         2514                       # number of overall MSHR misses
system.cpu.icache.demand_mshr_miss_latency::.cpu.inst    189900000                       # number of demand (read+write) MSHR miss cycles
system.cpu.icache.demand_mshr_miss_latency::total    189900000                       # number of demand (read+write) MSHR miss cycles
system.cpu.icache.overall_mshr_miss_latency::.cpu.inst    189900000                       # number of overall MSHR miss cycles
system.cpu.icache.overall_mshr_miss_latency::total    189900000                       # number of overall MSHR miss cycles
system.cpu.icache.demand_mshr_miss_rate::.cpu.inst     0.000018                       # mshr miss rate for demand accesses
system.cpu.icache.demand_mshr_miss_rate::total     0.000018                       # mshr miss rate for demand accesses
system.cpu.icache.overall_mshr_miss_rate::.cpu.inst     0.000018                       # mshr miss rate for overall accesses
system.cpu.icache.overall_mshr_miss_rate::total     0.000018                       # mshr miss rate for overall accesses
system.cpu.icache.demand_avg_mshr_miss_latency::.cpu.inst 75536.992840                       # average overall mshr miss latency
system.cpu.icache.demand_avg_mshr_miss_latency::total 75536.992840                       # average overall mshr miss latency
system.cpu.icache.overall_avg_mshr_miss_latency::.cpu.inst 75536.992840                       # average overall mshr miss latency
system.cpu.icache.overall_avg_mshr_miss_latency::total 75536.992840                       # average overall mshr miss latency
system.cpu.icache.replacements                    331                       # number of replacements
system.cpu.icache.ReadReq_hits::.cpu.inst    139916546                       # number of ReadReq hits
system.cpu.icache.ReadReq_hits::total       139916546                       # number of ReadReq hits
system.cpu.icache.ReadReq_misses::.cpu.inst         2514                       # number of ReadReq misses
system.cpu.icache.ReadReq_misses::total          2514                       # number of ReadReq misses
system.cpu.icache.ReadReq_miss_latency::.cpu.inst    192414000                       # number of ReadReq miss cycles
system.cpu.icache.ReadReq_miss_latency::total    192414000                       # number of ReadReq miss cycles
system.cpu.icache.ReadReq_accesses::.cpu.inst    139919060                       # number of ReadReq accesses(hits+misses)
system.cpu.icache.ReadReq_accesses::total    139919060                       # number of ReadReq accesses(hits+misses)
system.cpu.icache.ReadReq_miss_rate::.cpu.inst     0.000018                       # miss rate for ReadReq accesses
system.cpu.icache.ReadReq_miss_rate::total     0.000018                       # miss rate for ReadReq accesses
system.cpu.icache.ReadReq_avg_miss_latency::.cpu.inst 76536.992840                       # average ReadReq miss latency
system.cpu.icache.ReadReq_avg_miss_latency::total 76536.992840                       # average ReadReq miss latency
system.cpu.icache.ReadReq_mshr_misses::.cpu.inst         2514                       # number of ReadReq MSHR misses
system.cpu.icache.ReadReq_mshr_misses::total         2514                       # number of ReadReq MSHR misses
system.cpu.icache.ReadReq_mshr_miss_latency::.cpu.inst    189900000                       # number of ReadReq MSHR miss cycles
system.cpu.icache.ReadReq_mshr_miss_latency::total    189900000                       # number of ReadReq MSHR miss cycles
system.cpu.icache.ReadReq_mshr_miss_rate::.cpu.inst     0.000018                       # mshr miss rate for ReadReq accesses
system.cpu.icache.ReadReq_mshr_miss_rate::total     0.000018                       # mshr miss rate for ReadReq accesses
system.cpu.icache.ReadReq_avg_mshr_miss_latency::.cpu.inst 75536.992840                       # average ReadReq mshr miss latency
system.cpu.icache.ReadReq_avg_mshr_miss_latency::total 75536.992840                       # average ReadReq mshr miss latency
system.cpu.icache.power_state.pwrStateResidencyTicks::UNDEFINED 192457459500                       # Cumulative time (in ticks) in various power states
system.cpu.icache.tags.tagsinuse          2164.069003                       # Cycle average of tags in use
system.cpu.icache.tags.total_refs           139919060                       # Total number of references to valid blocks.
system.cpu.icache.tags.sampled_refs              2514                       # Sample count of references to valid blocks.
system.cpu.icache.tags.avg_refs          55655.950676                       # Average number of references to valid blocks.
system.cpu.icache.tags.warmup_cycle             87500                       # Cycle when the warmup percentage was hit.
system.cpu.icache.tags.occ_blocks::.cpu.inst  2164.069003                       # Average occupied blocks per requestor
system.cpu.icache.tags.occ_percent::.cpu.inst     0.528337                       # Average percentage of cache occupancy
system.cpu.icache.tags.occ_percent::total     0.528337                       # Average percentage of cache occupancy
system.cpu.icache.tags.occ_task_id_blocks::1024         2183                       # Occupied blocks per task id
system.cpu.icache.tags.age_task_id_blocks_1024::4         2183                       # Occupied blocks per task id
system.cpu.icache.tags.occ_task_id_percent::1024     0.532959                       # Percentage of cache occupancy per task id
system.cpu.icache.tags.tag_accesses         279840634                       # Number of tag accesses
system.cpu.icache.tags.data_accesses        279840634                       # Number of data accesses
system.cpu.icache.tags.power_state.pwrStateResidencyTicks::UNDEFINED 192457459500                       # Cumulative time (in ticks) in various power states
system.cpu.interrupts.clk_domain.clock           8000                       # Clock period in ticks
system.cpu.itb.rdAccesses                           0                       # TLB accesses on read requests
system.cpu.itb.wrAccesses                   139919060                       # TLB accesses on write requests
system.cpu.itb.rdMisses                             0                       # TLB misses on read requests
system.cpu.itb.wrMisses                           106                       # TLB misses on write requests
system.cpu.itb.walker.power_state.pwrStateResidencyTicks::UNDEFINED 192457459500                       # Cumulative time (in ticks) in various power states
system.cpu.itb_walker_cache.blocked_cycles::no_mshrs            0                       # number of cycles access was blocked
system.cpu.itb_walker_cache.blocked_cycles::no_targets            0                       # number of cycles access was blocked
system.cpu.itb_walker_cache.blocked::no_mshrs            0                       # number of cycles access was blocked
system.cpu.itb_walker_cache.blocked::no_targets            0                       # number of cycles access was blocked
system.cpu.itb_walker_cache.avg_blocked_cycles::no_mshrs          nan                       # average number of cycles each access was blocked
system.cpu.itb_walker_cache.avg_blocked_cycles::no_targets          nan                       # average number of cycles each access was blocked
system.cpu.itb_walker_cache.replacements            0                       # number of replacements
system.cpu.itb_walker_cache.power_state.pwrStateResidencyTicks::UNDEFINED 192457459500                       # Cumulative time (in ticks) in various power states
system.cpu.itb_walker_cache.tags.tagsinuse            0                       # Cycle average of tags in use
system.cpu.itb_walker_cache.tags.total_refs            0                       # Total number of references to valid blocks.
system.cpu.itb_walker_cache.tags.sampled_refs            0                       # Sample count of references to valid blocks.
system.cpu.itb_walker_cache.tags.avg_refs          nan                       # Average number of references to valid blocks.
system.cpu.itb_walker_cache.tags.warmup_cycle            0                       # Cycle when the warmup percentage was hit.
system.cpu.itb_walker_cache.tags.tag_accesses            0                       # Number of tag accesses
system.cpu.itb_walker_cache.tags.data_accesses            0                       # Number of data accesses
system.cpu.itb_walker_cache.tags.power_state.pwrStateResidencyTicks::UNDEFINED 192457459500                       # Cumulative time (in ticks) in various power states
system.cpu.power_state.pwrStateResidencyTicks::ON 192457459500                       # Cumulative time (in ticks) in various power states
system.cpu.thread_0.numInsts                        0                       # Number of Instructions committed
system.cpu.thread_0.numOps                          0                       # Number of Ops committed
system.cpu.thread_0.numMemRefs                      0                       # Number of Memory References
system.cpu_clk_domain.clock                       500                       # Clock period in ticks
system.cpu_voltage_domain.voltage                   1                       # Voltage in Volts
system.l2.demand_hits::.cpu.inst                   30                       # number of demand (read+write) hits
system.l2.demand_hits::.cpu.data                52824                       # number of demand (read+write) hits
system.l2.demand_hits::total                    52854                       # number of demand (read+write) hits
system.l2.overall_hits::.cpu.inst                  30                       # number of overall hits
system.l2.overall_hits::.cpu.data               52824                       # number of overall hits
system.l2.overall_hits::total                   52854                       # number of overall hits
system.l2.demand_misses::.cpu.inst               2484                       # number of demand (read+write) misses
system.l2.demand_misses::.cpu.data              11750                       # number of demand (read+write) misses
system.l2.demand_misses::total                  14234                       # number of demand (read+write) misses
system.l2.overall_misses::.cpu.inst              2484                       # number of overall misses
system.l2.overall_misses::.cpu.data             11750                       # number of overall misses
system.l2.overall_misses::total                 14234                       # number of overall misses
system.l2.demand_miss_latency::.cpu.inst    185814000                       # number of demand (read+write) miss cycles
system.l2.demand_miss_latency::.cpu.data    906470000                       # number of demand (read+write) miss cycles
system.l2.demand_miss_latency::total       1092284000                       # number of demand (read+write) miss cycles
system.l2.overall_miss_latency::.cpu.inst    185814000                       # number of overall miss cycles
system.l2.overall_miss_latency::.cpu.data    906470000                       # number of overall miss cycles
system.l2.overall_miss_latency::total      1092284000                       # number of overall miss cycles
system.l2.demand_accesses::.cpu.inst             2514                       # number of demand (read+write) accesses
system.l2.demand_accesses::.cpu.data            64574                       # number of demand (read+write) accesses
system.l2.demand_accesses::total                67088                       # number of demand (read+write) accesses
system.l2.overall_accesses::.cpu.inst            2514                       # number of overall (read+write) accesses
system.l2.overall_accesses::.cpu.data           64574                       # number of overall (read+write) accesses
system.l2.overall_accesses::total               67088                       # number of overall (read+write) accesses
system.l2.demand_miss_rate::.cpu.inst        0.988067                       # miss rate for demand accesses
system.l2.demand_miss_rate::.cpu.data        0.181962                       # miss rate for demand accesses
system.l2.demand_miss_rate::total            0.212169                       # miss rate for demand accesses
system.l2.overall_miss_rate::.cpu.inst       0.988067                       # miss rate for overall accesses
system.l2.overall_miss_rate::.cpu.data       0.181962                       # miss rate for overall accesses
system.l2.overall_miss_rate::total           0.212169                       # miss rate for overall accesses
system.l2.demand_avg_miss_latency::.cpu.inst 74804.347826                       # average overall miss latency
system.l2.demand_avg_miss_latency::.cpu.data 77146.382979                       # average overall miss latency
system.l2.demand_avg_miss_latency::total 76737.670367                       # average overall miss latency
system.l2.overall_avg_miss_latency::.cpu.inst 74804.347826                       # average overall miss latency
system.l2.overall_avg_miss_latency::.cpu.data 77146.382979                       # average overall miss latency
system.l2.overall_avg_miss_latency::total 76737.670367                       # average overall miss latency
system.l2.blocked_cycles::no_mshrs                  0                       # number of cycles access was blocked
system.l2.blocked_cycles::no_targets                0                       # number of cycles access was blocked
system.l2.blocked::no_mshrs                         0                       # number of cycles access was blocked
system.l2.blocked::no_targets                       0                       # number of cycles access was blocked
system.l2.avg_blocked_cycles::no_mshrs            nan                       # average number of cycles each access was blocked
system.l2.avg_blocked_cycles::no_targets          nan                       # average number of cycles each access was blocked
system.l2.writebacks::.writebacks                2321                       # number of writebacks
system.l2.writebacks::total                      2321                       # number of writebacks
system.l2.demand_mshr_misses::.cpu.inst          2484                       # number of demand (read+write) MSHR misses
system.l2.demand_mshr_misses::.cpu.data         11750                       # number of demand (read+write) MSHR misses
system.l2.demand_mshr_misses::total             14234                       # number of demand (read+write) MSHR misses
system.l2.overall_mshr_misses::.cpu.inst         2484                       # number of overall MSHR misses
system.l2.overall_mshr_misses::.cpu.data        11750                       # number of overall MSHR misses
system.l2.overall_mshr_misses::total            14234                       # number of overall MSHR misses
system.l2.demand_mshr_miss_latency::.cpu.inst    160974000                       # number of demand (read+write) MSHR miss cycles
system.l2.demand_mshr_miss_latency::.cpu.data    788970000                       # number of demand (read+write) MSHR miss cycles
system.l2.demand_mshr_miss_latency::total    949944000                       # number of demand (read+write) MSHR miss cycles
system.l2.overall_mshr_miss_latency::.cpu.inst    160974000                       # number of overall MSHR miss cycles
system.l2.overall_mshr_miss_latency::.cpu.data    788970000                       # number of overall MSHR miss cycles
system.l2.overall_mshr_miss_latency::total    949944000                       # number of overall MSHR miss cycles
system.l2.demand_mshr_miss_rate::.cpu.inst     0.988067                       # mshr miss rate for demand accesses
system.l2.demand_mshr_miss_rate::.cpu.data     0.181962                       # mshr miss rate for demand accesses
system.l2.demand_mshr_miss_rate::total       0.212169                       # mshr miss rate for demand accesses
system.l2.overall_mshr_miss_rate::.cpu.inst     0.988067                       # mshr miss rate for overall accesses
system.l2.overall_mshr_miss_rate::.cpu.data     0.181962                       # mshr miss rate for overall accesses
system.l2.overall_mshr_miss_rate::total      0.212169                       # mshr miss rate for overall accesses
system.l2.demand_avg_mshr_miss_latency::.cpu.inst 64804.347826                       # average overall mshr miss latency
system.l2.demand_avg_mshr_miss_latency::.cpu.data 67146.382979                       # average overall mshr miss latency
system.l2.demand_avg_mshr_miss_latency::total 66737.670367                       # average overall mshr miss latency
system.l2.overall_avg_mshr_miss_latency::.cpu.inst 64804.347826                       # average overall mshr miss latency
system.l2.overall_avg_mshr_miss_latency::.cpu.data 67146.382979                       # average overall mshr miss latency
system.l2.overall_avg_mshr_miss_latency::total 66737.670367                       # average overall mshr miss latency
system.l2.replacements                          10619                       # number of replacements
system.l2.WritebackDirty_hits::.writebacks        58713                       # number of WritebackDirty hits
system.l2.WritebackDirty_hits::total            58713                       # number of WritebackDirty hits
system.l2.WritebackDirty_accesses::.writebacks        58713                       # number of WritebackDirty accesses(hits+misses)
system.l2.WritebackDirty_accesses::total        58713                       # number of WritebackDirty accesses(hits+misses)
system.l2.WritebackClean_hits::.writebacks          331                       # number of WritebackClean hits
system.l2.WritebackClean_hits::total              331                       # number of WritebackClean hits
system.l2.WritebackClean_accesses::.writebacks          331                       # number of WritebackClean accesses(hits+misses)
system.l2.WritebackClean_accesses::total          331                       # number of WritebackClean accesses(hits+misses)
system.l2.CleanEvict_mshr_misses::.writebacks          452                       # number of CleanEvict MSHR misses
system.l2.CleanEvict_mshr_misses::total           452                       # number of CleanEvict MSHR misses
system.l2.CleanEvict_mshr_miss_rate::.writebacks          inf                       # mshr miss rate for CleanEvict accesses
system.l2.CleanEvict_mshr_miss_rate::total          inf                       # mshr miss rate for CleanEvict accesses
system.l2.ReadExReq_hits::.cpu.data             38324                       # number of ReadExReq hits
system.l2.ReadExReq_hits::total                 38324                       # number of ReadExReq hits
system.l2.ReadExReq_misses::.cpu.data           10328                       # number of ReadExReq misses
system.l2.ReadExReq_misses::total               10328                       # number of ReadExReq misses
system.l2.ReadExReq_miss_latency::.cpu.data    793565000                       # number of ReadExReq miss cycles
system.l2.ReadExReq_miss_latency::total     793565000                       # number of ReadExReq miss cycles
system.l2.ReadExReq_accesses::.cpu.data         48652                       # number of ReadExReq accesses(hits+misses)
system.l2.ReadExReq_accesses::total             48652                       # number of ReadExReq accesses(hits+misses)
system.l2.ReadExReq_miss_rate::.cpu.data     0.212283                       # miss rate for ReadExReq accesses
system.l2.ReadExReq_miss_rate::total         0.212283                       # miss rate for ReadExReq accesses
system.l2.ReadExReq_avg_miss_latency::.cpu.data 76836.270333                       # average ReadExReq miss latency
system.l2.ReadExReq_avg_miss_latency::total 76836.270333                       # average ReadExReq miss latency
system.l2.ReadExReq_mshr_misses::.cpu.data        10328                       # number of ReadExReq MSHR misses
system.l2.ReadExReq_mshr_misses::total          10328                       # number of ReadExReq MSHR misses
system.l2.ReadExReq_mshr_miss_latency::.cpu.data    690285000                       # number of ReadExReq MSHR miss cycles
system.l2.ReadExReq_mshr_miss_latency::total    690285000                       # number of ReadExReq MSHR miss cycles
system.l2.ReadExReq_mshr_miss_rate::.cpu.data     0.212283                       # mshr miss rate for ReadExReq accesses
system.l2.ReadExReq_mshr_miss_rate::total     0.212283                       # mshr miss rate for ReadExReq accesses
system.l2.ReadExReq_avg_mshr_miss_latency::.cpu.data 66836.270333                       # average ReadExReq mshr miss latency
system.l2.ReadExReq_avg_mshr_miss_latency::total 66836.270333                       # average ReadExReq mshr miss latency
system.l2.ReadCleanReq_hits::.cpu.inst             30                       # number of ReadCleanReq hits
system.l2.ReadCleanReq_hits::total                 30                       # number of ReadCleanReq hits
system.l2.ReadCleanReq_misses::.cpu.inst         2484                       # number of ReadCleanReq misses
system.l2.ReadCleanReq_misses::total             2484                       # number of ReadCleanReq misses
system.l2.ReadCleanReq_miss_latency::.cpu.inst    185814000                       # number of ReadCleanReq miss cycles
system.l2.ReadCleanReq_miss_latency::total    185814000                       # number of ReadCleanReq miss cycles
system.l2.ReadCleanReq_accesses::.cpu.inst         2514                       # number of ReadCleanReq accesses(hits+misses)
system.l2.ReadCleanReq_accesses::total           2514                       # number of ReadCleanReq accesses(hits+misses)
system.l2.ReadCleanReq_miss_rate::.cpu.inst     0.988067                       # miss rate for ReadCleanReq accesses
system.l2.ReadCleanReq_miss_rate::total      0.988067                       # miss rate for ReadCleanReq accesses
system.l2.ReadCleanReq_avg_miss_latency::.cpu.inst 74804.347826                       # average ReadCleanReq miss latency
system.l2.ReadCleanReq_avg_miss_latency::total 74804.347826                       # average ReadCleanReq miss latency
system.l2.ReadCleanReq_mshr_misses::.cpu.inst         2484                       # number of ReadCleanReq MSHR misses
system.l2.ReadCleanReq_mshr_misses::total         2484                       # number of ReadCleanReq MSHR misses
system.l2.ReadCleanReq_mshr_miss_latency::.cpu.inst    160974000                       # number of ReadCleanReq MSHR miss cycles
system.l2.ReadCleanReq_mshr_miss_latency::total    160974000                       # number of ReadCleanReq MSHR miss cycles
system.l2.ReadCleanReq_mshr_miss_rate::.cpu.inst     0.988067                       # mshr miss rate for ReadCleanReq accesses
system.l2.ReadCleanReq_mshr_miss_rate::total     0.988067                       # mshr miss rate for ReadCleanReq accesses
system.l2.ReadCleanReq_avg_mshr_miss_latency::.cpu.inst 64804.347826                       # average ReadCleanReq mshr miss latency
system.l2.ReadCleanReq_avg_mshr_miss_latency::total 64804.347826                       # average ReadCleanReq mshr miss latency
system.l2.ReadSharedReq_hits::.cpu.data         14500                       # number of ReadSharedReq hits
system.l2.ReadSharedReq_hits::total             14500                       # number of ReadSharedReq hits
system.l2.ReadSharedReq_misses::.cpu.data         1422                       # number of ReadSharedReq misses
system.l2.ReadSharedReq_misses::total            1422                       # number of ReadSharedReq misses
system.l2.ReadSharedReq_miss_latency::.cpu.data    112905000                       # number of ReadSharedReq miss cycles
system.l2.ReadSharedReq_miss_latency::total    112905000                       # number of ReadSharedReq miss cycles
system.l2.ReadSharedReq_accesses::.cpu.data        15922                       # number of ReadSharedReq accesses(hits+misses)
system.l2.ReadSharedReq_accesses::total         15922                       # number of ReadSharedReq accesses(hits+misses)
system.l2.ReadSharedReq_miss_rate::.cpu.data     0.089310                       # miss rate for ReadSharedReq accesses
system.l2.ReadSharedReq_miss_rate::total     0.089310                       # miss rate for ReadSharedReq accesses
system.l2.ReadSharedReq_avg_miss_latency::.cpu.data 79398.734177                       # average ReadSharedReq miss latency
system.l2.ReadSharedReq_avg_miss_latency::total 79398.734177                       # average ReadSharedReq miss latency
system.l2.ReadSharedReq_mshr_misses::.cpu.data         1422                       # number of ReadSharedReq MSHR misses
system.l2.ReadSharedReq_mshr_misses::total         1422                       # number of ReadSharedReq MSHR misses
system.l2.ReadSharedReq_mshr_miss_latency::.cpu.data     98685000                       # number of ReadSharedReq MSHR miss cycles
system.l2.ReadSharedReq_mshr_miss_latency::total     98685000                       # number of ReadSharedReq MSHR miss cycles
system.l2.ReadSharedReq_mshr_miss_rate::.cpu.data     0.089310                       # mshr miss rate for ReadSharedReq accesses
system.l2.ReadSharedReq_mshr_miss_rate::total     0.089310                       # mshr miss rate for ReadSharedReq accesses
system.l2.ReadSharedReq_avg_mshr_miss_latency::.cpu.data 69398.734177                       # average ReadSharedReq mshr miss latency
system.l2.ReadSharedReq_avg_mshr_miss_latency::total 69398.734177                       # average ReadSharedReq mshr miss latency
system.l2.power_state.pwrStateResidencyTicks::UNDEFINED 192457459500                       # Cumulative time (in ticks) in various power states
system.l2.tags.tagsinuse                  7657.994314                       # Cycle average of tags in use
system.l2.tags.total_refs                      127445                       # Total number of references to valid blocks.
system.l2.tags.sampled_refs                     18802                       # Sample count of references to valid blocks.
system.l2.tags.avg_refs                      6.778268                       # Average number of references to valid blocks.
system.l2.tags.warmup_cycle                     77000                       # Cycle when the warmup percentage was hit.
system.l2.tags.occ_blocks::.writebacks    1026.082245                       # Average occupied blocks per requestor
system.l2.tags.occ_blocks::.cpu.inst       447.070879                       # Average occupied blocks per requestor
system.l2.tags.occ_blocks::.cpu.data      6184.841190                       # Average occupied blocks per requestor
system.l2.tags.occ_percent::.writebacks      0.125254                       # Average percentage of cache occupancy
system.l2.tags.occ_percent::.cpu.inst        0.054574                       # Average percentage of cache occupancy
system.l2.tags.occ_percent::.cpu.data        0.754985                       # Average percentage of cache occupancy
system.l2.tags.occ_percent::total            0.934814                       # Average percentage of cache occupancy
system.l2.tags.occ_task_id_blocks::1024          8183                       # Occupied blocks per task id
system.l2.tags.age_task_id_blocks_1024::3           88                       # Occupied blocks per task id
system.l2.tags.age_task_id_blocks_1024::4         8095                       # Occupied blocks per task id
system.l2.tags.occ_task_id_percent::1024     0.998901                       # Percentage of cache occupancy per task id
system.l2.tags.tag_accesses                    274596                       # Number of tag accesses
system.l2.tags.data_accesses                   274596                       # Number of data accesses
system.l2.tags.power_state.pwrStateResidencyTicks::UNDEFINED 192457459500                       # Cumulative time (in ticks) in various power states
system.mem_ctrls.avgPriority_.writebacks::samples      1308.00                       # Average QoS priority value for accepted requests
system.mem_ctrls.avgPriority_.cpu.inst::samples      2484.00                       # Average QoS priority value for accepted requests
system.mem_ctrls.avgPriority_.cpu.data::samples     11603.00                       # Average QoS priority value for accepted requests
system.mem_ctrls.priorityMinLatency      0.000000018750                       # per QoS priority minimum request to response latency (s)
system.mem_ctrls.priorityMaxLatency      0.223199176750                       # per QoS priority maximum request to response latency (s)
system.mem_ctrls.numReadWriteTurnArounds           73                       # Number of turnarounds from READ to WRITE
system.mem_ctrls.numWriteReadTurnArounds           73                       # Number of turnarounds from WRITE to READ
system.mem_ctrls.numStayReadState               79896                       # Number of times bus staying in READ state
system.mem_ctrls.numStayWriteState               1213                       # Number of times bus staying in WRITE state
system.mem_ctrls.readReqs                       14234                       # Number of read requests accepted
system.mem_ctrls.writeReqs                       2321                       # Number of write requests accepted
system.mem_ctrls.readBursts                     14234                       # Number of controller read bursts, including those serviced by the write queue
system.mem_ctrls.writeBursts                     2321                       # Number of controller write bursts, including those merged in the write queue
system.mem_ctrls.servicedByWrQ                    147                       # Number of controller read bursts serviced by the write queue
system.mem_ctrls.mergedWrBursts                  1013                       # Number of controller write bursts merged with an existing one
system.mem_ctrls.neitherReadNorWriteReqs            0                       # Number of requests that are neither read nor write
system.mem_ctrls.avgRdQLen                       1.00                       # Average read queue length when enqueuing
system.mem_ctrls.avgWrQLen                      23.10                       # Average write queue length when enqueuing
system.mem_ctrls.numRdRetry                         0                       # Number of times read queue was full causing retry
system.mem_ctrls.numWrRetry                         0                       # Number of times write queue was full causing retry
system.mem_ctrls.readPktSize::0                     0                       # Read request sizes (log2)
system.mem_ctrls.readPktSize::1                     0                       # Read request sizes (log2)
system.mem_ctrls.readPktSize::2                     0                       # Read request sizes (log2)
system.mem_ctrls.readPktSize::3                     0                       # Read request sizes (log2)
system.mem_ctrls.readPktSize::4                     0                       # Read request sizes (log2)
system.mem_ctrls.readPktSize::5                 14234                       # Read request sizes (log2)
system.mem_ctrls.writePktSize::0                    0                       # Write request sizes (log2)
system.mem_ctrls.writePktSize::1                    0                       # Write request sizes (log2)
system.mem_ctrls.writePktSize::2                    0                       # Write request sizes (log2)
system.mem_ctrls.writePktSize::3                    0                       # Write request sizes (log2)
system.mem_ctrls.writePktSize::4                    0                       # Write request sizes (log2)
system.mem_ctrls.writePktSize::5                 2321                       # Write request sizes (log2)
system.mem_ctrls.rdQLenPdf::0                   13992                       # What read queue length does an incoming req see
system.mem_ctrls.rdQLenPdf::1                      90                       # What read queue length does an incoming req see
system.mem_ctrls.rdQLenPdf::2                       4                       # What read queue length does an incoming req see
system.mem_ctrls.rdQLenPdf::3                       1                       # What read queue length does an incoming req see
system.mem_ctrls.rdQLenPdf::4                       0                       # What read queue length does an incoming req see
system.mem_ctrls.rdQLenPdf::5                       0                       # What read queue length does an incoming req see
system.mem_ctrls.rdQLenPdf::6                       0                       # What read queue length does an incoming req see
system.mem_ctrls.rdQLenPdf::7                       0                       # What read queue length does an incoming req see
system.mem_ctrls.rdQLenPdf::8                       0                       # What read queue length does an incoming req see
system.mem_ctrls.rdQLenPdf::9                       0                       # What read queue length does an incoming req see
system.mem_ctrls.rdQLenPdf::10                      0                       # What read queue length does an incoming req see
system.mem_ctrls.rdQLenPdf::11                      0                       # What read queue length does an incoming req see
system.mem_ctrls.rdQLenPdf::12                      0                       # What read queue length does an incoming req see
system.mem_ctrls.rdQLenPdf::13                      0                       # What read queue length does an incoming req see
system.mem_ctrls.rdQLenPdf::14                      0                       # What read queue length does an incoming req see
system.mem_ctrls.rdQLenPdf::15                      0                       # What read queue length does an incoming req see
system.mem_ctrls.rdQLenPdf::16                      0                       # What read queue length does an incoming req see
system.mem_ctrls.rdQLenPdf::17                      0                       # What read queue length does an incoming req see
system.mem_ctrls.rdQLenPdf::18                      0                       # What read queue length does an incoming req see
system.mem_ctrls.rdQLenPdf::19                      0                       # What read queue length does an incoming req see
system.mem_ctrls.rdQLenPdf::20                      0                       # What read queue length does an incoming req see
system.mem_ctrls.rdQLenPdf::21                      0                       # What read queue length does an incoming req see
system.mem_ctrls.rdQLenPdf::22                      0                       # What read queue length does an incoming req see
system.mem_ctrls.rdQLenPdf::23                      0                       # What read queue length does an incoming req see
system.mem_ctrls.rdQLenPdf::24                      0                       # What read queue length does an incoming req see
system.mem_ctrls.rdQLenPdf::25                      0                       # What read queue length does an incoming req see
system.mem_ctrls.rdQLenPdf::26                      0                       # What read queue length does an incoming req see
system.mem_ctrls.rdQLenPdf::27                      0                       # What read queue length does an incoming req see
system.mem_ctrls.rdQLenPdf::28                      0                       # What read queue length does an incoming req see
system.mem_ctrls.rdQLenPdf::29                      0                       # What read queue length does an incoming req see
system.mem_ctrls.rdQLenPdf::30                      0                       # What read queue length does an incoming req see
system.mem_ctrls.rdQLenPdf::31                      0                       # What read queue length does an incoming req see
system.mem_ctrls.wrQLenPdf::0                       1                       # What write queue length does an incoming req see
system.mem_ctrls.wrQLenPdf::1                       1                       # What write queue length does an incoming req see
system.mem_ctrls.wrQLenPdf::2                       1                       # What write queue length does an incoming req see
system.mem_ctrls.wrQLenPdf::3                       1                       # What write queue length does an incoming req see
system.mem_ctrls.wrQLenPdf::4                       1                       # What write queue length does an incoming req see
system.mem_ctrls.wrQLenPdf::5                       1                       # What write queue length does an incoming req see
system.mem_ctrls.wrQLenPdf::6                       1                       # What write queue length does an incoming req see
system.mem_ctrls.wrQLenPdf::7                       1                       # What write queue length does an incoming req see
system.mem_ctrls.wrQLenPdf::8                       1                       # What write queue length does an incoming req see
system.mem_ctrls.wrQLenPdf::9                       1                       # What write queue length does an incoming req see
system.mem_ctrls.wrQLenPdf::10                      1                       # What write queue length does an incoming req see
system.mem_ctrls.wrQLenPdf::11                      1                       # What write queue length does an incoming req see
system.mem_ctrls.wrQLenPdf::12                      1                       # What write queue length does an incoming req see
system.mem_ctrls.wrQLenPdf::13                      1                       # What write queue length does an incoming req see
system.mem_ctrls.wrQLenPdf::14                      1                       # What write queue length does an incoming req see
system.mem_ctrls.wrQLenPdf::15                     56                       # What write queue length does an incoming req see
system.mem_ctrls.wrQLenPdf::16                     56                       # What write queue length does an incoming req see
system.mem_ctrls.wrQLenPdf::17                     73                       # What write queue length does an incoming req see
system.mem_ctrls.wrQLenPdf::18                     74                       # What write queue length does an incoming req see
system.mem_ctrls.wrQLenPdf::19                     74                       # What write queue length does an incoming req see
system.mem_ctrls.wrQLenPdf::20                     74                       # What write queue length does an incoming req see
system.mem_ctrls.wrQLenPdf::21                     74                       # What write queue length does an incoming req see
system.mem_ctrls.wrQLenPdf::22                     74                       # What write queue length does an incoming req see
system.mem_ctrls.wrQLenPdf::23                     74                       # What write queue length does an incoming req see
system.mem_ctrls.wrQLenPdf::24                     75                       # What write queue length does an incoming req see
system.mem_ctrls.wrQLenPdf::25                     75                       # What write queue length does an incoming req see
system.mem_ctrls.wrQLenPdf::26                     75                       # What write queue length does an incoming req see
system.mem_ctrls.wrQLenPdf::27                     74                       # What write queue length does an incoming req see
system.mem_ctrls.wrQLenPdf::28                     73                       # What write queue length does an incoming req see
system.mem_ctrls.wrQLenPdf::29                     73                       # What write queue length does an incoming req see
system.mem_ctrls.wrQLenPdf::30                     73                       # What write queue length does an incoming req see
system.mem_ctrls.wrQLenPdf::31                     73                       # What write queue length does an incoming req see
system.mem_ctrls.wrQLenPdf::32                     73                       # What write queue length does an incoming req see
system.mem_ctrls.wrQLenPdf::33                      0                       # What write queue length does an incoming req see
system.mem_ctrls.wrQLenPdf::34                      0                       # What write queue length does an incoming req see
system.mem_ctrls.wrQLenPdf::35                      0                       # What write queue length does an incoming req see
system.mem_ctrls.wrQLenPdf::36                      0                       # What write queue length does an incoming req see
system.mem_ctrls.wrQLenPdf::37                      0                       # What write queue length does an incoming req see
system.mem_ctrls.wrQLenPdf::38                      0                       # What write queue length does an incoming req see
system.mem_ctrls.wrQLenPdf::39                      0                       # What write queue length does an incoming req see
system.mem_ctrls.wrQLenPdf::40                      0                       # What write queue length does an incoming req see
system.mem_ctrls.wrQLenPdf::41                      0                       # What write queue length does an incoming req see
system.mem_ctrls.wrQLenPdf::42                      0                       # What write queue length does an incoming req see
system.mem_ctrls.wrQLenPdf::43                      0                       # What write queue length does an incoming req see
system.mem_ctrls.wrQLenPdf::44                      0                       # What write queue length does an incoming req see
system.mem_ctrls.wrQLenPdf::45                      0                       # What write queue length does an incoming req see
system.mem_ctrls.wrQLenPdf::46                      0                       # What write queue length does an incoming req see
system.mem_ctrls.wrQLenPdf::47                      0                       # What write queue length does an incoming req see
system.mem_ctrls.wrQLenPdf::48                      0                       # What write queue length does an incoming req see
system.mem_ctrls.wrQLenPdf::49                      0                       # What write queue length does an incoming req see
system.mem_ctrls.wrQLenPdf::50                      0                       # What write queue length does an incoming req see
system.mem_ctrls.wrQLenPdf::51                      0                       # What write queue length does an incoming req see
system.mem_ctrls.wrQLenPdf::52                      0                       # What write queue length does an incoming req see
system.mem_ctrls.wrQLenPdf::53                      0                       # What write queue length does an incoming req see
system.mem_ctrls.wrQLenPdf::54                      0                       # What write queue length does an incoming req see
system.mem_ctrls.wrQLenPdf::55                      0                       # What write queue length does an incoming req see
system.mem_ctrls.wrQLenPdf::56                      0                       # What write queue length does an incoming req see
system.mem_ctrls.wrQLenPdf::57                      0                       # What write queue length does an incoming req see
system.mem_ctrls.wrQLenPdf::58                      0                       # What write queue length does an incoming req see
system.mem_ctrls.wrQLenPdf::59                      0                       # What write queue length does an incoming req see
system.mem_ctrls.wrQLenPdf::60                      0                       # What write queue length does an incoming req see
system.mem_ctrls.wrQLenPdf::61                      0                       # What write queue length does an incoming req see
system.mem_ctrls.wrQLenPdf::62                      0                       # What write queue length does an incoming req see
system.mem_ctrls.wrQLenPdf::63                      0                       # What write queue length does an incoming req see
system.mem_ctrls.rdPerTurnAround::samples           73                       # Reads before turning the bus around for writes
system.mem_ctrls.rdPerTurnAround::mean     192.150685                       # Reads before turning the bus around for writes
system.mem_ctrls.rdPerTurnAround::stdev   1211.769937                       # Reads before turning the bus around for writes
system.mem_ctrls.rdPerTurnAround::0-511            72     98.63%     98.63% # Reads before turning the bus around for writes
system.mem_ctrls.rdPerTurnAround::10240-10751            1      1.37%    100.00% # Reads before turning the bus around for writes
system.mem_ctrls.rdPerTurnAround::total            73                       # Reads before turning the bus around for writes
system.mem_ctrls.wrPerTurnAround::samples           73                       # Writes before turning the bus around for reads
system.mem_ctrls.wrPerTurnAround::mean      17.534247                       # Writes before turning the bus around for reads
system.mem_ctrls.wrPerTurnAround::gmean     17.510674                       # Writes before turning the bus around for reads
system.mem_ctrls.wrPerTurnAround::stdev      0.898798                       # Writes before turning the bus around for reads
system.mem_ctrls.wrPerTurnAround::16               18     24.66%     24.66% # Writes before turning the bus around for reads
system.mem_ctrls.wrPerTurnAround::18               53     72.60%     97.26% # Writes before turning the bus around for reads
system.mem_ctrls.wrPerTurnAround::19                2      2.74%    100.00% # Writes before turning the bus around for reads
system.mem_ctrls.wrPerTurnAround::total            73                       # Writes before turning the bus around for reads
system.mem_ctrls.bytesReadWrQ                    9408                       # Total number of bytes read from write queue
system.mem_ctrls.bytesReadSys                  455488                       # Total read bytes from the system interface side
system.mem_ctrls.bytesWrittenSys                74272                       # Total written bytes from the system interface side
[...]
system.mem_ctrls.dram.bw_total::.cpu.data      1953678                       # Total bandwidth to/from this memory (bytes/s)
system.mem_ctrls.dram.bw_total::total         2752608                       # Total bandwidth to/from this memory (bytes/s)
system.mem_ctrls.dram.readBursts                14087                       # Number of DRAM read bursts
system.mem_ctrls.dram.writeBursts                1280                       # Number of DRAM write bursts
system.mem_ctrls.dram.perBankRdBursts::0          936                       # Per bank write bursts
system.mem_ctrls.dram.perBankRdBursts::1         1208                       # Per bank write bursts
system.mem_ctrls.dram.perBankRdBursts::2         1034                       # Per bank write bursts
system.mem_ctrls.dram.perBankRdBursts::3         1582                       # Per bank write bursts
system.mem_ctrls.dram.perBankRdBursts::4         1134                       # Per bank write bursts
system.mem_ctrls.dram.perBankRdBursts::5          598                       # Per bank write bursts
system.mem_ctrls.dram.perBankRdBursts::6          685                       # Per bank write bursts
system.mem_ctrls.dram.perBankRdBursts::7          615                       # Per bank write bursts
system.mem_ctrls.dram.perBankRdBursts::8          719                       # Per bank write bursts
system.mem_ctrls.dram.perBankRdBursts::9          719                       # Per bank write bursts
system.mem_ctrls.dram.perBankRdBursts::10          619                       # Per bank write bursts
system.mem_ctrls.dram.perBankRdBursts::11          838                       # Per bank write bursts
system.mem_ctrls.dram.perBankRdBursts::12          696                       # Per bank write bursts
system.mem_ctrls.dram.perBankRdBursts::13          820                       # Per bank write bursts
system.mem_ctrls.dram.perBankRdBursts::14          970                       # Per bank write bursts
system.mem_ctrls.dram.perBankRdBursts::15          914                       # Per bank write bursts
system.mem_ctrls.dram.perBankWrBursts::0          146                       # Per bank write bursts
system.mem_ctrls.dram.perBankWrBursts::1          129                       # Per bank write bursts
system.mem_ctrls.dram.perBankWrBursts::2          125                       # Per bank write bursts
system.mem_ctrls.dram.perBankWrBursts::3          338                       # Per bank write bursts
system.mem_ctrls.dram.perBankWrBursts::4          149                       # Per bank write bursts
system.mem_ctrls.dram.perBankWrBursts::5            0                       # Per bank write bursts
system.mem_ctrls.dram.perBankWrBursts::6           13                       # Per bank write bursts
system.mem_ctrls.dram.perBankWrBursts::7            0                       # Per bank write bursts
system.mem_ctrls.dram.perBankWrBursts::8            0                       # Per bank write bursts
system.mem_ctrls.dram.perBankWrBursts::9            7                       # Per bank write bursts
system.mem_ctrls.dram.perBankWrBursts::10           44                       # Per bank write bursts
system.mem_ctrls.dram.perBankWrBursts::11           60                       # Per bank write bursts
system.mem_ctrls.dram.perBankWrBursts::12            8                       # Per bank write bursts
system.mem_ctrls.dram.perBankWrBursts::13           79                       # Per bank write bursts
system.mem_ctrls.dram.perBankWrBursts::14           80                       # Per bank write bursts
system.mem_ctrls.dram.perBankWrBursts::15          102                       # Per bank write bursts
system.mem_ctrls.dram.totQLat               106237000                       # Total ticks spent queuing
system.mem_ctrls.dram.totBusLat              70435000                       # Total ticks spent in databus transfers
system.mem_ctrls.dram.totMemAccLat          370368250                       # Total ticks spent from burst creation until serviced by the DRAM
system.mem_ctrls.dram.avgQLat                 7541.49                       # Average queueing delay per DRAM burst
system.mem_ctrls.dram.avgBusLat               5000.00                       # Average bus latency per DRAM burst
system.mem_ctrls.dram.avgMemAccLat           26291.49                       # Average memory access latency per DRAM burst
system.mem_ctrls.dram.readRowHits               10562                       # Number of row buffer hits during reads
system.mem_ctrls.dram.writeRowHits               1062                       # Number of row buffer hits during writes
system.mem_ctrls.dram.readRowHitRate            74.98                       # Row buffer hit rate for reads
system.mem_ctrls.dram.writeRowHitRate           82.97                       # Row buffer hit rate for writes
system.mem_ctrls.dram.bytesPerActivate::samples         3743                       # Bytes accessed per row activation
system.mem_ctrls.dram.bytesPerActivate::mean   262.753941                       # Bytes accessed per row activation
system.mem_ctrls.dram.bytesPerActivate::gmean   161.218686                       # Bytes accessed per row activation
system.mem_ctrls.dram.bytesPerActivate::stdev   303.665748                       # Bytes accessed per row activation
system.mem_ctrls.dram.bytesPerActivate::0-127         1284     34.30%     34.30% # Bytes accessed per row activation
system.mem_ctrls.dram.bytesPerActivate::128-255         1257     33.58%     67.89% # Bytes accessed per row activation
system.mem_ctrls.dram.bytesPerActivate::256-383          493     13.17%     81.06% # Bytes accessed per row activation
system.mem_ctrls.dram.bytesPerActivate::384-511           99      2.64%     83.70% # Bytes accessed per row activation
system.mem_ctrls.dram.bytesPerActivate::512-639           76      2.03%     85.73% # Bytes accessed per row activation
system.mem_ctrls.dram.bytesPerActivate::640-767           58      1.55%     87.28% # Bytes accessed per row activation
system.mem_ctrls.dram.bytesPerActivate::768-895           43      1.15%     88.43% # Bytes accessed per row activation
system.mem_ctrls.dram.bytesPerActivate::896-1023           45      1.20%     89.63% # Bytes accessed per row activation
system.mem_ctrls.dram.bytesPerActivate::1024-1151          388     10.37%    100.00% # Bytes accessed per row activation
system.mem_ctrls.dram.bytesPerActivate::total         3743                       # Bytes accessed per row activation
system.mem_ctrls.dram.bytesRead                901568                       # Total number of bytes read from DRAM
system.mem_ctrls.dram.bytesWritten              81920                       # Total number of bytes written to DRAM
system.mem_ctrls.dram.avgRdBW                4.684505                       # Average DRAM read bandwidth in MiBytes/s
system.mem_ctrls.dram.avgWrBW                0.425653                       # Average DRAM write bandwidth in MiBytes/s
system.mem_ctrls.dram.peakBW                 12800.00                       # Theoretical peak bandwidth in MiByte/s
system.mem_ctrls.dram.busUtil                    0.04                       # Data bus utilization in percentage
system.mem_ctrls.dram.busUtilRead                0.04                       # Data bus utilization in percentage for reads
system.mem_ctrls.dram.busUtilWrite               0.00                       # Data bus utilization in percentage for writes
system.mem_ctrls.dram.pageHitRate               75.64                       # Row buffer hit rate, read and write combined
system.mem_ctrls.dram.power_state.pwrStateResidencyTicks::UNDEFINED 192457459500                       # Cumulative time (in ticks) in various power states
system.mem_ctrls.dram.rank0.actEnergy        15843660                       # Energy for activate commands per rank (pJ)
system.mem_ctrls.dram.rank0.preEnergy         8421105                       # Energy for precharge commands per rank (pJ)
system.mem_ctrls.dram.rank0.readEnergy       55634880                       # Energy for read commands per rank (pJ)
system.mem_ctrls.dram.rank0.writeEnergy       4698000                       # Energy for write commands per rank (pJ)
system.mem_ctrls.dram.rank0.refreshEnergy 15192056880.000002                       # Energy for refresh commands per rank (pJ)
system.mem_ctrls.dram.rank0.actBackEnergy   5758007190                       # Energy for active background per rank (pJ)
system.mem_ctrls.dram.rank0.preBackEnergy  69054816480                       # Energy for precharge background per rank (pJ)
system.mem_ctrls.dram.rank0.actPowerDownEnergy            0                       # Energy for active power-down per rank (pJ)
system.mem_ctrls.dram.rank0.prePowerDownEnergy            0                       # Energy for precharge power-down per rank (pJ)
system.mem_ctrls.dram.rank0.selfRefreshEnergy            0                       # Energy for self refresh per rank (pJ)
system.mem_ctrls.dram.rank0.totalEnergy   90089478195                       # Total energy per rank (pJ)
system.mem_ctrls.dram.rank0.averagePower   468.100735                       # Core power per rank (mW)
system.mem_ctrls.dram.rank0.totalIdleTime            0                       # Total Idle time Per DRAM Rank
system.mem_ctrls.dram.rank0.pwrStateTime::IDLE 179469092750                       # Time in different power states
system.mem_ctrls.dram.rank0.pwrStateTime::REF   6426420000                       # Time in different power states
system.mem_ctrls.dram.rank0.pwrStateTime::SREF            0                       # Time in different power states
system.mem_ctrls.dram.rank0.pwrStateTime::PRE_PDN            0                       # Time in different power states
system.mem_ctrls.dram.rank0.pwrStateTime::ACT   6561946750                       # Time in different power states
system.mem_ctrls.dram.rank0.pwrStateTime::ACT_PDN            0                       # Time in different power states
system.mem_ctrls.dram.rank1.actEnergy        10881360                       # Energy for activate commands per rank (pJ)
system.mem_ctrls.dram.rank1.preEnergy         5783580                       # Energy for precharge commands per rank (pJ)
system.mem_ctrls.dram.rank1.readEnergy       44946300                       # Energy for read commands per rank (pJ)
system.mem_ctrls.dram.rank1.writeEnergy       1983600                       # Energy for write commands per rank (pJ)
system.mem_ctrls.dram.rank1.refreshEnergy 15192056880.000002                       # Energy for refresh commands per rank (pJ)
system.mem_ctrls.dram.rank1.actBackEnergy   4608354240                       # Energy for active background per rank (pJ)
system.mem_ctrls.dram.rank1.preBackEnergy  70022945280                       # Energy for precharge background per rank (pJ)
system.mem_ctrls.dram.rank1.actPowerDownEnergy            0                       # Energy for active power-down per rank (pJ)
system.mem_ctrls.dram.rank1.prePowerDownEnergy            0                       # Energy for precharge power-down per rank (pJ)
system.mem_ctrls.dram.rank1.selfRefreshEnergy            0                       # Energy for self refresh per rank (pJ)
system.mem_ctrls.dram.rank1.totalEnergy   89886951240                       # Total energy per rank (pJ)
system.mem_ctrls.dram.rank1.averagePower   467.048414                       # Core power per rank (mW)
system.mem_ctrls.dram.rank1.totalIdleTime            0                       # Total Idle time Per DRAM Rank
system.mem_ctrls.dram.rank1.pwrStateTime::IDLE 181999934250                       # Time in different power states
system.mem_ctrls.dram.rank1.pwrStateTime::REF   6426420000                       # Time in different power states
system.mem_ctrls.dram.rank1.pwrStateTime::SREF            0                       # Time in different power states
system.mem_ctrls.dram.rank1.pwrStateTime::PRE_PDN            0                       # Time in different power states
system.mem_ctrls.dram.rank1.pwrStateTime::ACT   4031105250                       # Time in different power states
system.mem_ctrls.dram.rank1.pwrStateTime::ACT_PDN            0                       # Time in different power states
system.mem_ctrls.power_state.pwrStateResidencyTicks::UNDEFINED 192457459500                       # Cumulative time (in ticks) in various power states
system.membus.trans_dist::ReadResp               3906                       # Transaction distribution
system.membus.trans_dist::WritebackDirty         2321                       # Transaction distribution
system.membus.trans_dist::CleanEvict             1319                       # Transaction distribution
system.membus.trans_dist::ReadExReq             10328                       # Transaction distribution
system.membus.trans_dist::ReadExResp            10328                       # Transaction distribution
system.membus.trans_dist::ReadSharedReq          3906                       # Transaction distribution
system.membus.pkt_count_system.l2.mem_side_port::system.mem_ctrls.port        32108                       # Packet count per connected requestor and responder (bytes)
system.membus.pkt_count_system.l2.mem_side_port::total        32108                       # Packet count per connected requestor and responder (bytes)
system.membus.pkt_count::total                  32108                       # Packet count per connected requestor and responder (bytes)
system.membus.pkt_size_system.l2.mem_side_port::system.mem_ctrls.port       529760                       # Cumulative packet size per connected requestor and responder (bytes)
system.membus.pkt_size_system.l2.mem_side_port::total       529760                       # Cumulative packet size per connected requestor and responder (bytes)
system.membus.pkt_size::total                  529760                       # Cumulative packet size per connected requestor and responder (bytes)
system.membus.snoops                                0                       # Total snoops (count)
system.membus.snoopTraffic                          0                       # Total snoop traffic (bytes)
system.membus.snoop_fanout::samples             14234                       # Request fanout histogram
system.membus.snoop_fanout::mean                    0                       # Request fanout histogram
system.membus.snoop_fanout::stdev                   0                       # Request fanout histogram
system.membus.snoop_fanout::underflows              0      0.00%      0.00% # Request fanout histogram
system.membus.snoop_fanout::0                   14234    100.00%    100.00% # Request fanout histogram
system.membus.snoop_fanout::1                       0      0.00%    100.00% # Request fanout histogram
system.membus.snoop_fanout::overflows               0      0.00%    100.00% # Request fanout histogram
system.membus.snoop_fanout::min_value               0                       # Request fanout histogram
system.membus.snoop_fanout::max_value               0                       # Request fanout histogram
system.membus.snoop_fanout::total               14234                       # Request fanout histogram
system.membus.power_state.pwrStateResidencyTicks::UNDEFINED 192457459500                       # Cumulative time (in ticks) in various power states
system.membus.reqLayer2.occupancy            22709500                       # Layer occupancy (ticks)
system.membus.reqLayer2.utilization               0.0                       # Layer utilization (%)
system.membus.respLayer1.occupancy           47121750                       # Layer occupancy (ticks)
system.membus.respLayer1.utilization              0.0                       # Layer utilization (%)
system.tol2bus.trans_dist::ReadResp             18436                       # Transaction distribution
system.tol2bus.trans_dist::WritebackDirty        61034                       # Transaction distribution
system.tol2bus.trans_dist::WritebackClean          331                       # Transaction distribution
system.tol2bus.trans_dist::CleanEvict           10063                       # Transaction distribution
system.tol2bus.trans_dist::ReadExReq            48652                       # Transaction distribution
system.tol2bus.trans_dist::ReadExResp           48652                       # Transaction distribution
system.tol2bus.trans_dist::ReadCleanReq          2514                       # Transaction distribution
system.tol2bus.trans_dist::ReadSharedReq        15922                       # Transaction distribution
system.tol2bus.pkt_count_system.cpu.icache.mem_side_port::system.l2.cpu_side_port         5359                       # Packet count per connected requestor and responder (bytes)
system.tol2bus.pkt_count_system.cpu.dcache.mem_side_port::system.l2.cpu_side_port       189626                       # Packet count per connected requestor and responder (bytes)
system.tol2bus.pkt_count::total                194985                       # Packet count per connected requestor and responder (bytes)
system.tol2bus.pkt_size_system.cpu.icache.mem_side_port::system.l2.cpu_side_port        91040                       # Cumulative packet size per connected requestor and responder (bytes)
system.tol2bus.pkt_size_system.cpu.dcache.mem_side_port::system.l2.cpu_side_port      3945184                       # Cumulative packet size per connected requestor and responder (bytes)
system.tol2bus.pkt_size::total                4036224                       # Cumulative packet size per connected requestor and responder (bytes)
system.tol2bus.snoops                           10619                       # Total snoops (count)
system.tol2bus.snoopTraffic                     74272                       # Total snoop traffic (bytes)
system.tol2bus.snoop_fanout::samples            77707                       # Request fanout histogram
system.tol2bus.snoop_fanout::mean            0.095628                       # Request fanout histogram
system.tol2bus.snoop_fanout::stdev           0.294083                       # Request fanout histogram
system.tol2bus.snoop_fanout::underflows             0      0.00%      0.00% # Request fanout histogram
system.tol2bus.snoop_fanout::0                  70276     90.44%     90.44% # Request fanout histogram
system.tol2bus.snoop_fanout::1                   7431      9.56%    100.00% # Request fanout histogram
system.tol2bus.snoop_fanout::2                      0      0.00%    100.00% # Request fanout histogram
system.tol2bus.snoop_fanout::3                      0      0.00%    100.00% # Request fanout histogram
system.tol2bus.snoop_fanout::4                      0      0.00%    100.00% # Request fanout histogram
system.tol2bus.snoop_fanout::overflows              0      0.00%    100.00% # Request fanout histogram
system.tol2bus.snoop_fanout::min_value              0                       # Request fanout histogram
system.tol2bus.snoop_fanout::max_value              1                       # Request fanout histogram
system.tol2bus.snoop_fanout::total              77707                       # Request fanout histogram
system.tol2bus.power_state.pwrStateResidencyTicks::UNDEFINED 192457459500                       # Cumulative time (in ticks) in various power states
system.tol2bus.reqLayer0.occupancy           93470500                       # Layer occupancy (ticks)
system.tol2bus.reqLayer0.utilization              0.0                       # Layer utilization (%)
system.tol2bus.respLayer0.occupancy           2514000                       # Layer occupancy (ticks)
system.tol2bus.respLayer0.utilization             0.0                       # Layer utilization (%)
system.tol2bus.respLayer1.occupancy          64574000                       # Layer occupancy (ticks)
system.tol2bus.respLayer1.utilization             0.0                       # Layer utilization (%)
system.voltage_domain.voltage                       1                       # Voltage in Volts

---------- End Simulation Statistics   ----------
