
---------- Begin Simulation Statistics ----------
final_tick                               192985157500                       # Number of ticks from beginning of simulation (restored from checkpoints and never reset)
host_inst_rate                                 845800                       # Simulator instruction rate (inst/s)
host_mem_usage                                 672588                       # Number of bytes of host memory used
host_op_rate                                  1094071                       # Simulator op (including micro ops) rate (op/s)
host_seconds                                   118.23                       # Real time elapsed on the host
host_tick_rate                             1632266230                       # Simulator tick rate (ticks/s)
sim_freq                                 1000000000000                       # Frequency of simulated ticks
sim_insts                                   100000000                       # Number of instructions simulated
sim_ops                                     129353490                       # Number of ops (including micro ops) simulated
sim_seconds                                  0.192985                       # Number of seconds simulated
sim_ticks                                192985157500                       # Number of ticks simulated
system.cpu.Branches                           5555718                       # Number of branches fetched
system.cpu.committedInsts                   100000000                       # Number of instructions committed
system.cpu.committedOps                     129353490                       # Number of ops (including micro ops) committed
system.cpu.idle_fraction                            0                       # Percentage of idle cycles
system.cpu.not_idle_fraction                        1                       # Percentage of non-idle cycles
system.cpu.numCycles                        385970315                       # number of cpu cycles simulated
system.cpu.numWorkItemsCompleted                    0                       # number of work items this cpu completed
system.cpu.numWorkItemsStarted                      0                       # number of work items this cpu started
system.cpu.num_busy_cycles                  385970315                       # Number of busy cycles
system.cpu.num_cc_register_reads             37536336                       # number of times the CC registers were read
system.cpu.num_cc_register_writes            52077182                       # number of times the CC registers were written
system.cpu.num_conditional_control_insts      5078798                       # number of instructions that are conditional controls
system.cpu.num_fp_alu_accesses                5734498                       # Number of float alu accesses
system.cpu.num_fp_insts                       5734498                       # number of float instructions
system.cpu.num_fp_register_reads              4648737                       # number of times the floating registers were read
system.cpu.num_fp_register_writes             4867956                       # number of times the floating registers were written
system.cpu.num_func_calls                      317051                       # number of times a function call or return occured
system.cpu.num_idle_cycles                          0                       # Number of idle cycles
system.cpu.num_int_alu_accesses             125241022                       # Number of integer alu accesses
system.cpu.num_int_insts                    125241022                       # number of integer instructions
system.cpu.num_int_register_reads           293410038                       # number of times the integer registers were read
system.cpu.num_int_register_writes          113873586                       # number of times the integer registers were written
system.cpu.num_load_insts                    43555354                       # Number of load instructions
system.cpu.num_mem_refs                      50714744                       # number of memory refs
system.cpu.num_store_insts                    7159390                       # Number of store instructions
system.cpu.num_vec_alu_accesses                     0                       # Number of vector alu accesses
system.cpu.num_vec_insts                            0                       # number of vector instructions
system.cpu.num_vec_register_reads                   0                       # number of times the vector registers were read
system.cpu.num_vec_register_writes                  0                       # number of times the vector registers were written
system.cpu.op_class::No_OpClass                550507      0.43%      0.43% # Class of executed instruction
system.cpu.op_class::IntAlu                  73097378     56.50%     56.92% # Class of executed instruction
system.cpu.op_class::IntMult                   132844      0.10%     57.02% # Class of executed instruction
system.cpu.op_class::IntDiv                   1253858      0.97%     57.99% # Class of executed instruction
system.cpu.op_class::FloatAdd                 1903691      1.47%     59.46% # Class of executed instruction
system.cpu.op_class::FloatCmp                       0      0.00%     59.46% # Class of executed instruction
system.cpu.op_class::FloatCvt                       0      0.00%     59.46% # Class of executed instruction
system.cpu.op_class::FloatMult                      0      0.00%     59.46% # Class of executed instruction
system.cpu.op_class::FloatMultAcc                   0      0.00%     59.46% # Class of executed instruction
system.cpu.op_class::FloatDiv                       0      0.00%     59.46% # Class of executed instruction
system.cpu.op_class::FloatMisc                      0      0.00%     59.46% # Class of executed instruction
system.cpu.op_class::FloatSqrt                      0      0.00%     59.46% # Class of executed instruction
system.cpu.op_class::SimdAdd                      494      0.00%     59.47% # Class of executed instruction
system.cpu.op_class::SimdAddAcc                     0      0.00%     59.47% # Class of executed instruction
system.cpu.op_class::SimdAlu                   218994      0.17%     59.63% # Class of executed instruction
system.cpu.op_class::SimdCmp                      180      0.00%     59.63% # Class of executed instruction
system.cpu.op_class::SimdCvt                   180632      0.14%     59.77% # Class of executed instruction
system.cpu.op_class::SimdMisc                  402789      0.31%     60.09% # Class of executed instruction
system.cpu.op_class::SimdMult                       0      0.00%     60.09% # Class of executed instruction
system.cpu.op_class::SimdMultAcc                    0      0.00%     60.09% # Class of executed instruction
system.cpu.op_class::SimdShift                     34      0.00%     60.09% # Class of executed instruction
system.cpu.op_class::SimdShiftAcc                   0      0.00%     60.09% # Class of executed instruction
system.cpu.op_class::SimdDiv                        0      0.00%     60.09% # Class of executed instruction
system.cpu.op_class::SimdSqrt                       0      0.00%     60.09% # Class of executed instruction
system.cpu.op_class::SimdFloatAdd              322927      0.25%     60.34% # Class of executed instruction
system.cpu.op_class::SimdFloatAlu                   0      0.00%     60.34% # Class of executed instruction
system.cpu.op_class::SimdFloatCmp                   0      0.00%     60.34% # Class of executed instruction
system.cpu.op_class::SimdFloatCvt              493438      0.38%     60.72% # Class of executed instruction
system.cpu.op_class::SimdFloatDiv               62796      0.05%     60.77% # Class of executed instruction
system.cpu.op_class::SimdFloatMisc                  0      0.00%     60.77% # Class of executed instruction
system.cpu.op_class::SimdFloatMult              49007      0.04%     60.80% # Class of executed instruction
system.cpu.op_class::SimdFloatMultAcc               0      0.00%     60.80% # Class of executed instruction
system.cpu.op_class::SimdFloatSqrt                  0      0.00%     60.80% # Class of executed instruction
system.cpu.op_class::SimdReduceAdd                  0      0.00%     60.80% # Class of executed instruction
system.cpu.op_class::SimdReduceAlu                  0      0.00%     60.80% # Class of executed instruction
system.cpu.op_class::SimdReduceCmp                  0      0.00%     60.80% # Class of executed instruction
system.cpu.op_class::SimdFloatReduceAdd             0      0.00%     60.80% # Class of executed instruction
system.cpu.op_class::SimdFloatReduceCmp             0      0.00%     60.80% # Class of executed instruction
system.cpu.op_class::SimdAes                        0      0.00%     60.80% # Class of executed instruction
system.cpu.op_class::SimdAesMix                     0      0.00%     60.80% # Class of executed instruction
system.cpu.op_class::SimdSha1Hash                   0      0.00%     60.80% # Class of executed instruction
system.cpu.op_class::SimdSha1Hash2                  0      0.00%     60.80% # Class of executed instruction
system.cpu.op_class::SimdSha256Hash                 0      0.00%     60.80% # Class of executed instruction
system.cpu.op_class::SimdSha256Hash2                0      0.00%     60.80% # Class of executed instruction
system.cpu.op_class::SimdShaSigma2                  0      0.00%     60.80% # Class of executed instruction
system.cpu.op_class::SimdShaSigma3                  0      0.00%     60.80% # Class of executed instruction
system.cpu.op_class::SimdPredAlu                    0      0.00%     60.80% # Class of executed instruction
system.cpu.op_class::MemRead                 42068750     32.51%     93.32% # Class of executed instruction
system.cpu.op_class::MemWrite                 6726912      5.20%     98.52% # Class of executed instruction
system.cpu.op_class::FloatMemRead             1486604      1.15%     99.67% # Class of executed instruction
system.cpu.op_class::FloatMemWrite             432478      0.33%    100.00% # Class of executed instruction
system.cpu.op_class::IprAccess                      0      0.00%    100.00% # Class of executed instruction
system.cpu.op_class::InstPrefetch                   0      0.00%    100.00% # Class of executed instruction
system.cpu.op_class::total                  129384313                       # Class of executed instruction
system.cpu.workload.numSyscalls                    35                       # Number of system calls
system.membus.snoop_filter.hit_multi_requests            0                       # Number of requests hitting in the snoop filter with multiple (>1) holders of the requested data.
system.membus.snoop_filter.hit_multi_snoops            0                       # Number of snoops hitting in the snoop filter with multiple (>1) holders of the requested data.
system.membus.snoop_filter.hit_single_requests        13991                       # Number of requests hitting in the snoop filter with a single holder of the requested data.
system.membus.snoop_filter.hit_single_snoops            0                       # Number of snoops hitting in the snoop filter with a single holder of the requested data.
system.membus.snoop_filter.tot_requests         36220                       # Total number of requests made to the snoop filter.
system.membus.snoop_filter.tot_snoops               0                       # Total number of snoops made to the snoop filter.
system.tol2bus.snoop_filter.hit_multi_requests            0                       # Number of requests hitting in the snoop filter with multiple (>1) holders of the requested data.
system.tol2bus.snoop_filter.hit_multi_snoops            0                       # Number of snoops hitting in the snoop filter with multiple (>1) holders of the requested data.
system.tol2bus.snoop_filter.hit_single_requests        60479                       # Number of requests hitting in the snoop filter with a single holder of the requested data.
system.tol2bus.snoop_filter.hit_single_snoops        56125                       # Number of snoops hitting in the snoop filter with a single holder of the requested data.
system.tol2bus.snoop_filter.tot_requests       127524                       # Total number of requests made to the snoop filter.
system.tol2bus.snoop_filter.tot_snoops          56125                       # Total number of snoops made to the snoop filter.
system.clk_domain.clock                          1000                       # Clock period in ticks
system.cpu.dcache.demand_hits::.cpu.data     50911212                       # number of demand (read+write) hits
system.cpu.dcache.demand_hits::total         50911212                       # number of demand (read+write) hits
system.cpu.dcache.overall_hits::.cpu.data     50923368                       # number of overall hits
system.cpu.dcache.overall_hits::total        50923368                       # number of overall hits
system.cpu.dcache.demand_misses::.cpu.data        61447                       # number of demand (read+write) misses
system.cpu.dcache.demand_misses::total          61447                       # number of demand (read+write) misses
system.cpu.dcache.overall_misses::.cpu.data        64645                       # number of overall misses
system.cpu.dcache.overall_misses::total         64645                       # number of overall misses
system.cpu.dcache.demand_miss_latency::.cpu.data   2103438000                       # number of demand (read+write) miss cycles
system.cpu.dcache.demand_miss_latency::total   2103438000                       # number of demand (read+write) miss cycles
system.cpu.dcache.overall_miss_latency::.cpu.data   2103438000                       # number of overall miss cycles
system.cpu.dcache.overall_miss_latency::total   2103438000                       # number of overall miss cycles
system.cpu.dcache.demand_accesses::.cpu.data     50972659                       # number of demand (read+write) accesses
system.cpu.dcache.demand_accesses::total     50972659                       # number of demand (read+write) accesses
system.cpu.dcache.overall_accesses::.cpu.data     50988013                       # number of overall (read+write) accesses
system.cpu.dcache.overall_accesses::total     50988013                       # number of overall (read+write) accesses
system.cpu.dcache.demand_miss_rate::.cpu.data     0.001205                       # miss rate for demand accesses
system.cpu.dcache.demand_miss_rate::total     0.001205                       # miss rate for demand accesses
system.cpu.dcache.overall_miss_rate::.cpu.data     0.001268                       # miss rate for overall accesses
system.cpu.dcache.overall_miss_rate::total     0.001268                       # miss rate for overall accesses
system.cpu.dcache.demand_avg_miss_latency::.cpu.data 34231.744430                       # average overall miss latency
system.cpu.dcache.demand_avg_miss_latency::total 34231.744430                       # average overall miss latency
system.cpu.dcache.overall_avg_miss_latency::.cpu.data 32538.293758                       # average overall miss latency
system.cpu.dcache.overall_avg_miss_latency::total 32538.293758                       # average overall miss latency
system.cpu.dcache.blocked_cycles::no_mshrs            0                       # number of cycles access was blocked
system.cpu.dcache.blocked_cycles::no_targets            0                       # number of cycles access was blocked
system.cpu.dcache.blocked::no_mshrs                 0                       # number of cycles access was blocked
system.cpu.dcache.blocked::no_targets               0                       # number of cycles access was blocked
system.cpu.dcache.avg_blocked_cycles::no_mshrs          nan                       # average number of cycles each access was blocked
system.cpu.dcache.avg_blocked_cycles::no_targets          nan                       # average number of cycles each access was blocked
system.cpu.dcache.writebacks::.writebacks        56395                       # number of writebacks
system.cpu.dcache.writebacks::total             56395                       # number of writebacks
system.cpu.dcache.demand_mshr_hits::.cpu.data            1                       # number of demand (read+write) MSHR hits
system.cpu.dcache.demand_mshr_hits::total            1                       # number of demand (read+write) MSHR hits
system.cpu.dcache.overall_mshr_hits::.cpu.data            1                       # number of overall MSHR hits
system.cpu.dcache.overall_mshr_hits::total            1                       # number of overall MSHR hits
system.cpu.dcache.demand_mshr_misses::.cpu.data        61446                       # number of demand (read+write) MSHR misses
system.cpu.dcache.demand_mshr_misses::total        61446                       # number of demand (read+write) MSHR misses
system.cpu.dcache.overall_mshr_misses::.cpu.data        64574                       # number of overall MSHR misses
system.cpu.dcache.overall_mshr_misses::total        64574                       # number of overall MSHR misses
system.cpu.dcache.demand_mshr_miss_latency::.cpu.data   2041973000                       # number of demand (read+write) MSHR miss cycles
system.cpu.dcache.demand_mshr_miss_latency::total   2041973000                       # number of demand (read+write) MSHR miss cycles
system.cpu.dcache.overall_mshr_miss_latency::.cpu.data   2130127000                       # number of overall MSHR miss cycles
system.cpu.dcache.overall_mshr_miss_latency::total   2130127000                       # number of overall MSHR miss cycles
system.cpu.dcache.demand_mshr_miss_rate::.cpu.data     0.001205                       # mshr miss rate for demand accesses
system.cpu.dcache.demand_mshr_miss_rate::total     0.001205                       # mshr miss rate for demand accesses
system.cpu.dcache.overall_mshr_miss_rate::.cpu.data     0.001266                       # mshr miss rate for overall accesses
system.cpu.dcache.overall_mshr_miss_rate::total     0.001266                       # mshr miss rate for overall accesses
system.cpu.dcache.demand_avg_mshr_miss_latency::.cpu.data 33231.992318                       # average overall mshr miss latency
system.cpu.dcache.demand_avg_mshr_miss_latency::total 33231.992318                       # average overall mshr miss latency
system.cpu.dcache.overall_avg_mshr_miss_latency::.cpu.data 32987.378821                       # average overall mshr miss latency
system.cpu.dcache.overall_avg_mshr_miss_latency::total 32987.378821                       # average overall mshr miss latency
system.cpu.dcache.replacements                  60478                       # number of replacements
system.cpu.dcache.ReadReq_hits::.cpu.data     43831186                       # number of ReadReq hits
system.cpu.dcache.ReadReq_hits::total        43831186                       # number of ReadReq hits
system.cpu.dcache.ReadReq_misses::.cpu.data        12795                       # number of ReadReq misses
system.cpu.dcache.ReadReq_misses::total         12795                       # number of ReadReq misses
system.cpu.dcache.ReadReq_miss_latency::.cpu.data    456962500                       # number of ReadReq miss cycles
system.cpu.dcache.ReadReq_miss_latency::total    456962500                       # number of ReadReq miss cycles
system.cpu.dcache.ReadReq_accesses::.cpu.data     43843981                       # number of ReadReq accesses(hits+misses)
system.cpu.dcache.ReadReq_accesses::total     43843981                       # number of ReadReq accesses(hits+misses)
system.cpu.dcache.ReadReq_miss_rate::.cpu.data     0.000292                       # miss rate for ReadReq accesses
system.cpu.dcache.ReadReq_miss_rate::total     0.000292                       # miss rate for ReadReq accesses
system.cpu.dcache.ReadReq_avg_miss_latency::.cpu.data 35714.146151                       # average ReadReq miss latency
system.cpu.dcache.ReadReq_avg_miss_latency::total 35714.146151                       # average ReadReq miss latency
system.cpu.dcache.ReadReq_mshr_hits::.cpu.data            1                       # number of ReadReq MSHR hits
system.cpu.dcache.ReadReq_mshr_hits::total            1                       # number of ReadReq MSHR hits
system.cpu.dcache.ReadReq_mshr_misses::.cpu.data        12794                       # number of ReadReq MSHR misses
system.cpu.dcache.ReadReq_mshr_misses::total        12794                       # number of ReadReq MSHR misses
system.cpu.dcache.ReadReq_mshr_miss_latency::.cpu.data    444149500                       # number of ReadReq MSHR miss cycles
system.cpu.dcache.ReadReq_mshr_miss_latency::total    444149500                       # number of ReadReq MSHR miss cycles
system.cpu.dcache.ReadReq_mshr_miss_rate::.cpu.data     0.000292                       # mshr miss rate for ReadReq accesses
system.cpu.dcache.ReadReq_mshr_miss_rate::total     0.000292                       # mshr miss rate for ReadReq accesses
system.cpu.dcache.ReadReq_avg_mshr_miss_latency::.cpu.data 34715.452556                       # average ReadReq mshr miss latency
system.cpu.dcache.ReadReq_avg_mshr_miss_latency::total 34715.452556                       # average ReadReq mshr miss latency
system.cpu.dcache.WriteReq_hits::.cpu.data      7080026                       # number of WriteReq hits
system.cpu.dcache.WriteReq_hits::total        7080026                       # number of WriteReq hits
system.cpu.dcache.WriteReq_misses::.cpu.data        48652                       # number of WriteReq misses
system.cpu.dcache.WriteReq_misses::total        48652                       # number of WriteReq misses
system.cpu.dcache.WriteReq_miss_latency::.cpu.data   1646475500                       # number of WriteReq miss cycles
system.cpu.dcache.WriteReq_miss_latency::total   1646475500                       # number of WriteReq miss cycles
system.cpu.dcache.WriteReq_accesses::.cpu.data      7128678                       # number of WriteReq accesses(hits+misses)
system.cpu.dcache.WriteReq_accesses::total      7128678                       # number of WriteReq accesses(hits+misses)
system.cpu.dcache.WriteReq_miss_rate::.cpu.data     0.006825                       # miss rate for WriteReq accesses
system.cpu.dcache.WriteReq_miss_rate::total     0.006825                       # miss rate for WriteReq accesses
system.cpu.dcache.WriteReq_avg_miss_latency::.cpu.data 33841.887281                       # average WriteReq miss latency
system.cpu.dcache.WriteReq_avg_miss_latency::total 33841.887281                       # average WriteReq miss latency
system.cpu.dcache.WriteReq_mshr_misses::.cpu.data        48652                       # number of WriteReq MSHR misses
system.cpu.dcache.WriteReq_mshr_misses::total        48652                       # number of WriteReq MSHR misses
system.cpu.dcache.WriteReq_mshr_miss_latency::.cpu.data   1597823500                       # number of WriteReq MSHR miss cycles
system.cpu.dcache.WriteReq_mshr_miss_latency::total   1597823500                       # number of WriteReq MSHR miss cycles
system.cpu.dcache.WriteReq_mshr_miss_rate::.cpu.data     0.006825                       # mshr miss rate for WriteReq accesses
system.cpu.dcache.WriteReq_mshr_miss_rate::total     0.006825                       # mshr miss rate for WriteReq accesses
system.cpu.dcache.WriteReq_avg_mshr_miss_latency::.cpu.data 32841.887281                       # average WriteReq mshr miss latency
system.cpu.dcache.WriteReq_avg_mshr_miss_latency::total 32841.887281                       # average WriteReq mshr miss latency
system.cpu.dcache.SoftPFReq_hits::.cpu.data        12156                       # number of SoftPFReq hits
system.cpu.dcache.SoftPFReq_hits::total         12156                       # number of SoftPFReq hits
system.cpu.dcache.SoftPFReq_misses::.cpu.data         3198                       # number of SoftPFReq misses
system.cpu.dcache.SoftPFReq_misses::total         3198                       # number of SoftPFReq misses
system.cpu.dcache.SoftPFReq_accesses::.cpu.data        15354                       # number of SoftPFReq accesses(hits+misses)
system.cpu.dcache.SoftPFReq_accesses::total        15354                       # number of SoftPFReq accesses(hits+misses)
system.cpu.dcache.SoftPFReq_miss_rate::.cpu.data     0.208284                       # miss rate for SoftPFReq accesses
system.cpu.dcache.SoftPFReq_miss_rate::total     0.208284                       # miss rate for SoftPFReq accesses
system.cpu.dcache.SoftPFReq_mshr_misses::.cpu.data         3128                       # number of SoftPFReq MSHR misses
system.cpu.dcache.SoftPFReq_mshr_misses::total         3128                       # number of SoftPFReq MSHR misses
system.cpu.dcache.SoftPFReq_mshr_miss_latency::.cpu.data     88154000                       # number of SoftPFReq MSHR miss cycles
system.cpu.dcache.SoftPFReq_mshr_miss_latency::total     88154000                       # number of SoftPFReq MSHR miss cycles
system.cpu.dcache.SoftPFReq_mshr_miss_rate::.cpu.data     0.203725                       # mshr miss rate for SoftPFReq accesses
system.cpu.dcache.SoftPFReq_mshr_miss_rate::total     0.203725                       # mshr miss rate for SoftPFReq accesses
system.cpu.dcache.SoftPFReq_avg_mshr_miss_latency::.cpu.data 28182.225064                       # average SoftPFReq mshr miss latency
system.cpu.dcache.SoftPFReq_avg_mshr_miss_latency::total 28182.225064                       # average SoftPFReq mshr miss latency
system.cpu.dcache.power_state.pwrStateResidencyTicks::UNDEFINED 192985157500                       # Cumulative time (in ticks) in various power states
system.cpu.dcache.tags.tagsinuse          4042.978895                       # Cycle average of tags in use
system.cpu.dcache.tags.total_refs            50987942                       # Total number of references to valid blocks.
system.cpu.dcache.tags.sampled_refs             64574                       # Sample count of references to valid blocks.
system.cpu.dcache.tags.avg_refs            789.604825                       # Average number of references to valid blocks.
system.cpu.dcache.tags.warmup_cycle            177500                       # Cycle when the warmup percentage was hit.
system.cpu.dcache.tags.occ_blocks::.cpu.data  4042.978895                       # Average occupied blocks per requestor
system.cpu.dcache.tags.occ_percent::.cpu.data     0.987055                       # Average percentage of cache occupancy
system.cpu.dcache.tags.occ_percent::total     0.987055                       # Average percentage of cache occupancy
system.cpu.dcache.tags.occ_task_id_blocks::1024         4096                       # Occupied blocks per task id
system.cpu.dcache.tags.age_task_id_blocks_1024::1            1                       # Occupied blocks per task id
system.cpu.dcache.tags.age_task_id_blocks_1024::2           38                       # Occupied blocks per task id
system.cpu.dcache.tags.age_task_id_blocks_1024::3          676                       # Occupied blocks per task id
system.cpu.dcache.tags.age_task_id_blocks_1024::4         3381                       # Occupied blocks per task id
system.cpu.dcache.tags.occ_task_id_percent::1024            1                       # Percentage of cache occupancy per task id
system.cpu.dcache.tags.tag_accesses         102040600                       # Number of tag accesses
system.cpu.dcache.tags.data_accesses        102040600                       # Number of data accesses
system.cpu.dcache.tags.power_state.pwrStateResidencyTicks::UNDEFINED 192985157500                       # Cumulative time (in ticks) in various power states
system.cpu.dtb.rdAccesses                    43859336                       # TLB accesses on read requests
system.cpu.dtb.wrAccesses                     7159465                       # TLB accesses on write requests
system.cpu.dtb.rdMisses                           114                       # TLB misses on read requests
system.cpu.dtb.wrMisses                           271                       # TLB misses on write requests
system.cpu.dtb.walker.power_state.pwrStateResidencyTicks::UNDEFINED 192985157500                       # Cumulative time (in ticks) in various power states
system.cpu.dtb_walker_cache.blocked_cycles::no_mshrs            0                       # number of cycles access was blocked
system.cpu.dtb_walker_cache.blocked_cycles::no_targets            0                       # number of cycles access was blocked
system.cpu.dtb_walker_cache.blocked::no_mshrs            0                       # number of cycles access was blocked
system.cpu.dtb_walker_cache.blocked::no_targets            0                       # number of cycles access was blocked
system.cpu.dtb_walker_cache.avg_blocked_cycles::no_mshrs          nan                       # average number of cycles each access was blocked
system.cpu.dtb_walker_cache.avg_blocked_cycles::no_targets          nan                       # average number of cycles each access was blocked
system.cpu.dtb_walker_cache.replacements            0                       # number of replacements
system.cpu.dtb_walker_cache.power_state.pwrStateResidencyTicks::UNDEFINED 192985157500                       # Cumulative time (in ticks) in various power states
system.cpu.dtb_walker_cache.tags.tagsinuse            0                       # Cycle average of tags in use
system.cpu.dtb_walker_cache.tags.total_refs            0                       # Total number of references to valid blocks.
system.cpu.dtb_walker_cache.tags.sampled_refs            0                       # Sample count of references to valid blocks.
system.cpu.dtb_walker_cache.tags.avg_refs          nan                       # Average number of references to valid blocks.
system.cpu.dtb_walker_cache.tags.warmup_cycle            0                       # Cycle when the warmup percentage was hit.
system.cpu.dtb_walker_cache.tags.tag_accesses            0                       # Number of tag accesses
system.cpu.dtb_walker_cache.tags.data_accesses            0                       # Number of data accesses
system.cpu.dtb_walker_cache.tags.power_state.pwrStateResidencyTicks::UNDEFINED 192985157500                       # Cumulative time (in ticks) in various power states
system.cpu.icache.demand_hits::.cpu.inst    139916589                       # number of demand (read+write) hits
system.cpu.icache.demand_hits::total        139916589                       # number of demand (read+write) hits
system.cpu.icache.overall_hits::.cpu.inst    139916589                       # number of overall hits
system.cpu.icache.overall_hits::total       139916589                       # number of overall hits
system.cpu.icache.demand_misses::.cpu.inst         2471                       # number of demand (read+write) misses
system.cpu.icache.demand_misses::total           2471                       # number of demand (read+write) misses
system.cpu.icache.overall_misses::.cpu.inst         2471                       # number of overall misses
system.cpu.icache.overall_misses::total          2471                       # number of overall misses
system.cpu.icache.demand_miss_latency::.cpu.inst    190607000                       # number of demand (read+write) miss cycles
system.cpu.icache.demand_miss_latency::total    190607000                       # number of demand (read+write) miss cycles
system.cpu.icache.overall_miss_latency::.cpu.inst    190607000                       # number of overall miss cycles
system.cpu.icache.overall_miss_latency::total    190607000                       # number of overall miss cycles
system.cpu.icache.demand_accesses::.cpu.inst    139919060                       # number of demand (read+write) accesses
system.cpu.icache.demand_accesses::total    139919060                       # number of demand (read+write) accesses
system.cpu.icache.overall_accesses::.cpu.inst    139919060                       # number of overall (read+write) accesses
system.cpu.icache.overall_accesses::total    139919060                       # number of overall (read+write) accesses
system.cpu.icache.demand_miss_rate::.cpu.inst     0.000018                       # miss rate for demand accesses
system.cpu.icache.demand_miss_rate::total     0.000018                       # miss rate for demand accesses
system.cpu.icache.overall_miss_rate::.cpu.inst     0.000018                       # miss rate for overall accesses
system.cpu.icache.overall_miss_rate::total     0.000018                       # miss rate for overall accesses
system.cpu.icache.demand_avg_miss_latency::.cpu.inst 77137.596115                       # average overall miss latency
system.cpu.icache.demand_avg_miss_latency::total 77137.596115                       # average overall miss latency
system.cpu.icache.overall_avg_miss_latency::.cpu.inst 77137.596115                       # average overall miss latency
system.cpu.icache.overall_avg_miss_latency::total 77137.596115                       # average overall miss latency
system.cpu.icache.blocked_cycles::no_mshrs            0                       # number of cycles access was blocked
system.cpu.icache.blocked_cycles::no_targets            0                       # number of cycles access was blocked
system.cpu.icache.blocked::no_mshrs                 0                       # number of cycles access was blocked
system.cpu.icache.blocked::no_targets               0                       # number of cycles access was blocked
system.cpu.icache.avg_blocked_cycles::no_mshrs          nan                       # average number of cycles each access was blocked
system.cpu.icache.avg_blocked_cycles::no_targets          nan                       # average number of cycles each access was blocked
system.cpu.icache.writebacks::.writebacks            1                       # number of writebacks
system.cpu.icache.writebacks::total                 1                       # number of writebacks
system.cpu.icache.demand_mshr_misses::.cpu.inst         2471                       # number of demand (read+write) MSHR misses
system.cpu.icache.demand_mshr_misses::total         2471                       # number of demand (read+write) MSHR misses
system.cpu.icache.overall_mshr_misses::.cpu.inst         2471                       # number of overall MSHR misses
system.cpu.icache.overall_mshr_misses::total         2471                       # number of overall MSHR misses
system.cpu.icache.demand_mshr_miss_latency::.cpu.inst    188136000                       # number of demand (read+write) MSHR miss cycles
system.cpu.icache.demand_mshr_miss_latency::total    188136000                       # number of demand (read+write) MSHR miss cycles
system.cpu.icache.overall_mshr_miss_latency::.cpu.inst    188136000                       # number of overall MSHR miss cycles
system.cpu.icache.overall_mshr_miss_latency::total    188136000                       # number of overall MSHR miss cycles
system.cpu.icache.demand_mshr_miss_rate::.cpu.inst     0.000018                       # mshr miss rate for demand accesses
system.cpu.icache.demand_mshr_miss_rate::total     0.000018                       # mshr miss rate for demand accesses
system.cpu.icache.overall_mshr_miss_rate::.cpu.inst     0.000018                       # mshr miss rate for overall accesses
system.cpu.icache.overall_mshr_miss_rate::total     0.000018                       # mshr miss rate for overall accesses
system.cpu.icache.demand_avg_mshr_miss_latency::.cpu.inst 76137.596115                       # average overall mshr miss latency
system.cpu.icache.demand_avg_mshr_miss_latency::total 76137.596115                       # average overall mshr miss latency
system.cpu.icache.overall_avg_mshr_miss_latency::.cpu.inst 76137.596115                       # average overall mshr miss latency
system.cpu.icache.overall_avg_mshr_miss_latency::total 76137.596115                       # average overall mshr miss latency
system.cpu.icache.replacements                      1                       # number of replacements
system.cpu.icache.ReadReq_hits::.cpu.inst    139916589                       # number of ReadReq hits
system.cpu.icache.ReadReq_hits::total       139916589                       # number of ReadReq hits
system.cpu.icache.ReadReq_misses::.cpu.inst         2471                       # number of ReadReq misses
system.cpu.icache.ReadReq_misses::total          2471                       # number of ReadReq misses
system.cpu.icache.ReadReq_miss_latency::.cpu.inst    190607000                       # number of ReadReq miss cycles
system.cpu.icache.ReadReq_miss_latency::total    190607000                       # number of ReadReq miss cycles
system.cpu.icache.ReadReq_accesses::.cpu.inst    139919060                       # number of ReadReq accesses(hits+misses)
system.cpu.icache.ReadReq_accesses::total    139919060                       # number of ReadReq accesses(hits+misses)
system.cpu.icache.ReadReq_miss_rate::.cpu.inst     0.000018                       # miss rate for ReadReq accesses
system.cpu.icache.ReadReq_miss_rate::total     0.000018                       # miss rate for ReadReq accesses
system.cpu.icache.ReadReq_avg_miss_latency::.cpu.inst 77137.596115                       # average ReadReq miss latency
system.cpu.icache.ReadReq_avg_miss_latency::total 77137.596115                       # average ReadReq miss latency
system.cpu.icache.ReadReq_mshr_misses::.cpu.inst         2471                       # number of ReadReq MSHR misses
system.cpu.icache.ReadReq_mshr_misses::total         2471                       # number of ReadReq MSHR misses
system.cpu.icache.ReadReq_mshr_miss_latency::.cpu.inst    188136000                       # number of ReadReq MSHR miss cycles
system.cpu.icache.ReadReq_mshr_miss_latency::total    188136000                       # number of ReadReq MSHR miss cycles
system.cpu.icache.ReadReq_mshr_miss_rate::.cpu.inst     0.000018                       # mshr miss rate for ReadReq accesses
system.cpu.icache.ReadReq_mshr_miss_rate::total     0.000018                       # mshr miss rate for ReadReq accesses
system.cpu.icache.ReadReq_avg_mshr_miss_latency::.cpu.inst 76137.596115                       # average ReadReq mshr miss latency
system.cpu.icache.ReadReq_avg_mshr_miss_latency::total 76137.596115                       # average ReadReq mshr miss latency
system.cpu.icache.power_state.pwrStateResidencyTicks::UNDEFINED 192985157500                       # Cumulative time (in ticks) in various power states
system.cpu.icache.tags.tagsinuse          2443.197738                       # Cycle average of tags in use
system.cpu.icache.tags.total_refs           139919060                       # Total number of references to valid blocks.
system.cpu.icache.tags.sampled_refs              2471                       # Sample count of references to valid blocks.
system.cpu.icache.tags.avg_refs          56624.467827                       # Average number of references to valid blocks.
system.cpu.icache.tags.warmup_cycle             87500                       # Cycle when the warmup percentage was hit.
system.cpu.icache.tags.occ_blocks::.cpu.inst  2443.197738                       # Average occupied blocks per requestor
system.cpu.icache.tags.occ_percent::.cpu.inst     0.596484                       # Average percentage of cache occupancy
system.cpu.icache.tags.occ_percent::total     0.596484                       # Average percentage of cache occupancy
system.cpu.icache.tags.occ_task_id_blocks::1024         2470                       # Occupied blocks per task id
system.cpu.icache.tags.age_task_id_blocks_1024::4         2470                       # Occupied blocks per task id
system.cpu.icache.tags.occ_task_id_percent::1024     0.603027                       # Percentage of cache occupancy per task id
system.cpu.icache.tags.tag_accesses        2238707431                       # Number of tag accesses
system.cpu.icache.tags.data_accesses       2238707431                       # Number of data accesses
system.cpu.icache.tags.power_state.pwrStateResidencyTicks::UNDEFINED 192985157500                       # Cumulative time (in ticks) in various power states
system.cpu.interrupts.clk_domain.clock           8000                       # Clock period in ticks
system.cpu.itb.rdAccesses                           0                       # TLB accesses on read requests
system.cpu.itb.wrAccesses                   139919060                       # TLB accesses on write requests
system.cpu.itb.rdMisses                             0                       # TLB misses on read requests
system.cpu.itb.wrMisses                           106                       # TLB misses on write requests
system.cpu.itb.walker.power_state.pwrStateResidencyTicks::UNDEFINED 192985157500                       # Cumulative time (in ticks) in various power states
system.cpu.itb_walker_cache.blocked_cycles::no_mshrs            0                       # number of cycles access was blocked
system.cpu.itb_walker_cache.blocked_cycles::no_targets            0                       # number of cycles access was blocked
system.cpu.itb_walker_cache.blocked::no_mshrs            0                       # number of cycles access was blocked
system.cpu.itb_walker_cache.blocked::no_targets            0                       # number of cycles access was blocked
system.cpu.itb_walker_cache.avg_blocked_cycles::no_mshrs          nan                       # average number of cycles each access was blocked
system.cpu.itb_walker_cache.avg_blocked_cycles::no_targets          nan                       # average number of cycles each access was blocked
system.cpu.itb_walker_cache.replacements            0                       # number of replacements
system.cpu.itb_walker_cache.power_state.pwrStateResidencyTicks::UNDEFINED 192985157500                       # Cumulative time (in ticks) in various power states
system.cpu.itb_walker_cache.tags.tagsinuse            0                       # Cycle average of tags in use
system.cpu.itb_walker_cache.tags.total_refs            0                       # Total number of references to valid blocks.
system.cpu.itb_walker_cache.tags.sampled_refs            0                       # Sample count of references to valid blocks.
system.cpu.itb_walker_cache.tags.avg_refs          nan                       # Average number of references to valid blocks.
system.cpu.itb_walker_cache.tags.warmup_cycle            0                       # Cycle when the warmup percentage was hit.
system.cpu.itb_walker_cache.tags.tag_accesses            0                       # Number of tag accesses
system.cpu.itb_walker_cache.tags.data_accesses            0                       # Number of data accesses
system.cpu.itb_walker_cache.tags.power_state.pwrStateResidencyTicks::UNDEFINED 192985157500                       # Cumulative time (in ticks) in various power states
system.cpu.power_state.pwrStateResidencyTicks::ON 192985157500                       # Cumulative time (in ticks) in various power states
system.cpu.thread_0.numInsts                        0                       # Number of Instructions committed
system.cpu.thread_0.numOps                          0                       # Number of Ops committed
system.cpu.thread_0.numMemRefs                      0                       # Number of Memory References
system.cpu_clk_domain.clock                       500                       # Clock period in ticks
system.cpu_voltage_domain.voltage                   1                       # Voltage in Volts
system.l2.demand_hits::.cpu.data                44816                       # number of demand (read+write) hits
system.l2.demand_hits::total                    44816                       # number of demand (read+write) hits
system.l2.overall_hits::.cpu.data               44816                       # number of overall hits
system.l2.overall_hits::total                   44816                       # number of overall hits
system.l2.demand_misses::.cpu.inst               2471                       # number of demand (read+write) misses
system.l2.demand_misses::.cpu.data              19758                       # number of demand (read+write) misses
system.l2.demand_misses::total                  22229                       # number of demand (read+write) misses
system.l2.overall_misses::.cpu.inst              2471                       # number of overall misses
system.l2.overall_misses::.cpu.data             19758                       # number of overall misses
system.l2.overall_misses::total                 22229                       # number of overall misses
system.l2.demand_miss_latency::.cpu.inst    184429500                       # number of demand (read+write) miss cycles
system.l2.demand_miss_latency::.cpu.data   1562698000                       # number of demand (read+write) miss cycles
system.l2.demand_miss_latency::total       1747127500                       # number of demand (read+write) miss cycles
system.l2.overall_miss_latency::.cpu.inst    184429500                       # number of overall miss cycles
system.l2.overall_miss_latency::.cpu.data   1562698000                       # number of overall miss cycles
system.l2.overall_miss_latency::total      1747127500                       # number of overall miss cycles
system.l2.demand_accesses::.cpu.inst             2471                       # number of demand (read+write) accesses
system.l2.demand_accesses::.cpu.data            64574                       # number of demand (read+write) accesses
system.l2.demand_accesses::total                67045                       # number of demand (read+write) accesses
system.l2.overall_accesses::.cpu.inst            2471                       # number of overall (read+write) accesses
system.l2.overall_accesses::.cpu.data           64574                       # number of overall (read+write) accesses
system.l2.overall_accesses::total               67045                       # number of overall (read+write) accesses
system.l2.demand_miss_rate::.cpu.inst               1                       # miss rate for demand accesses
system.l2.demand_miss_rate::.cpu.data        0.305975                       # miss rate for demand accesses
system.l2.demand_miss_rate::total            0.331553                       # miss rate for demand accesses
system.l2.overall_miss_rate::.cpu.inst              1                       # miss rate for overall accesses
system.l2.overall_miss_rate::.cpu.data       0.305975                       # miss rate for overall accesses
system.l2.overall_miss_rate::total           0.331553                       # miss rate for overall accesses
system.l2.demand_avg_miss_latency::.cpu.inst 74637.596115                       # average overall miss latency
system.l2.demand_avg_miss_latency::.cpu.data 79091.912137                       # average overall miss latency
system.l2.demand_avg_miss_latency::total 78596.765487                       # average overall miss latency
system.l2.overall_avg_miss_latency::.cpu.inst 74637.596115                       # average overall miss latency
system.l2.overall_avg_miss_latency::.cpu.data 79091.912137                       # average overall miss latency
system.l2.overall_avg_miss_latency::total 78596.765487                       # average overall miss latency
system.l2.blocked_cycles::no_mshrs                  0                       # number of cycles access was blocked
system.l2.blocked_cycles::no_targets                0                       # number of cycles access was blocked
system.l2.blocked::no_mshrs                         0                       # number of cycles access was blocked
system.l2.blocked::no_targets                       0                       # number of cycles access was blocked
system.l2.avg_blocked_cycles::no_mshrs            nan                       # average number of cycles each access was blocked
system.l2.avg_blocked_cycles::no_targets          nan                       # average number of cycles each access was blocked
system.l2.writebacks::.writebacks               10098                       # number of writebacks
system.l2.writebacks::total                     10098                       # number of writebacks
system.l2.demand_mshr_misses::.cpu.inst          2471                       # number of demand (read+write) MSHR misses
system.l2.demand_mshr_misses::.cpu.data         19758                       # number of demand (read+write) MSHR misses
system.l2.demand_mshr_misses::total             22229                       # number of demand (read+write) MSHR misses
system.l2.overall_mshr_misses::.cpu.inst         2471                       # number of overall MSHR misses
system.l2.overall_mshr_misses::.cpu.data        19758                       # number of overall MSHR misses
system.l2.overall_mshr_misses::total            22229                       # number of overall MSHR misses
system.l2.demand_mshr_miss_latency::.cpu.inst    159719500                       # number of demand (read+write) MSHR miss cycles
system.l2.demand_mshr_miss_latency::.cpu.data   1365118000                       # number of demand (read+write) MSHR miss cycles
system.l2.demand_mshr_miss_latency::total   1524837500                       # number of demand (read+write) MSHR miss cycles
system.l2.overall_mshr_miss_latency::.cpu.inst    159719500                       # number of overall MSHR miss cycles
system.l2.overall_mshr_miss_latency::.cpu.data   1365118000                       # number of overall MSHR miss cycles
system.l2.overall_mshr_miss_latency::total   1524837500                       # number of overall MSHR miss cycles
system.l2.demand_mshr_miss_rate::.cpu.inst            1                       # mshr miss rate for demand accesses
system.l2.demand_mshr_miss_rate::.cpu.data     0.305975                       # mshr miss rate for demand accesses
system.l2.demand_mshr_miss_rate::total       0.331553                       # mshr miss rate for demand accesses
system.l2.overall_mshr_miss_rate::.cpu.inst            1                       # mshr miss rate for overall accesses
system.l2.overall_mshr_miss_rate::.cpu.data     0.305975                       # mshr miss rate for overall accesses
system.l2.overall_mshr_miss_rate::total      0.331553                       # mshr miss rate for overall accesses
system.l2.demand_avg_mshr_miss_latency::.cpu.inst 64637.596115                       # average overall mshr miss latency
system.l2.demand_avg_mshr_miss_latency::.cpu.data 69091.912137                       # average overall mshr miss latency
system.l2.demand_avg_mshr_miss_latency::total 68596.765487                       # average overall mshr miss latency
system.l2.overall_avg_mshr_miss_latency::.cpu.inst 64637.596115                       # average overall mshr miss latency
system.l2.overall_avg_mshr_miss_latency::.cpu.data 69091.912137                       # average overall mshr miss latency
system.l2.overall_avg_mshr_miss_latency::total 68596.765487                       # average overall mshr miss latency
system.l2.replacements                          66363                       # number of replacements
system.l2.WritebackDirty_hits::.writebacks        56395                       # number of WritebackDirty hits
system.l2.WritebackDirty_hits::total            56395                       # number of WritebackDirty hits
system.l2.WritebackDirty_accesses::.writebacks        56395                       # number of WritebackDirty accesses(hits+misses)
system.l2.WritebackDirty_accesses::total        56395                       # number of WritebackDirty accesses(hits+misses)
system.l2.WritebackClean_hits::.writebacks            1                       # number of WritebackClean hits
system.l2.WritebackClean_hits::total                1                       # number of WritebackClean hits
system.l2.WritebackClean_accesses::.writebacks            1                       # number of WritebackClean accesses(hits+misses)
system.l2.WritebackClean_accesses::total            1                       # number of WritebackClean accesses(hits+misses)
system.l2.CleanEvict_mshr_misses::.writebacks         3753                       # number of CleanEvict MSHR misses
system.l2.CleanEvict_mshr_misses::total          3753                       # number of CleanEvict MSHR misses
system.l2.CleanEvict_mshr_miss_rate::.writebacks          inf                       # mshr miss rate for CleanEvict accesses
system.l2.CleanEvict_mshr_miss_rate::total          inf                       # mshr miss rate for CleanEvict accesses
system.l2.ReadExReq_hits::.cpu.data             33710                       # number of ReadExReq hits
system.l2.ReadExReq_hits::total                 33710                       # number of ReadExReq hits
system.l2.ReadExReq_misses::.cpu.data           14942                       # number of ReadExReq misses
system.l2.ReadExReq_misses::total               14942                       # number of ReadExReq misses
system.l2.ReadExReq_miss_latency::.cpu.data   1170890500                       # number of ReadExReq miss cycles
system.l2.ReadExReq_miss_latency::total    1170890500                       # number of ReadExReq miss cycles
system.l2.ReadExReq_accesses::.cpu.data         48652                       # number of ReadExReq accesses(hits+misses)
system.l2.ReadExReq_accesses::total             48652                       # number of ReadExReq accesses(hits+misses)
system.l2.ReadExReq_miss_rate::.cpu.data     0.307120                       # miss rate for ReadExReq accesses
system.l2.ReadExReq_miss_rate::total         0.307120                       # miss rate for ReadExReq accesses
system.l2.ReadExReq_avg_miss_latency::.cpu.data 78362.367822                       # average ReadExReq miss latency
system.l2.ReadExReq_avg_miss_latency::total 78362.367822                       # average ReadExReq miss latency
system.l2.ReadExReq_mshr_misses::.cpu.data        14942                       # number of ReadExReq MSHR misses
system.l2.ReadExReq_mshr_misses::total          14942                       # number of ReadExReq MSHR misses
system.l2.ReadExReq_mshr_miss_latency::.cpu.data   1021470500                       # number of ReadExReq MSHR miss cycles
system.l2.ReadExReq_mshr_miss_latency::total   1021470500                       # number of ReadExReq MSHR miss cycles
system.l2.ReadExReq_mshr_miss_rate::.cpu.data     0.307120                       # mshr miss rate for ReadExReq accesses
system.l2.ReadExReq_mshr_miss_rate::total     0.307120                       # mshr miss rate for ReadExReq accesses
system.l2.ReadExReq_avg_mshr_miss_latency::.cpu.data 68362.367822                       # average ReadExReq mshr miss latency
system.l2.ReadExReq_avg_mshr_miss_latency::total 68362.367822                       # average ReadExReq mshr miss latency
system.l2.ReadCleanReq_misses::.cpu.inst         2471                       # number of ReadCleanReq misses
system.l2.ReadCleanReq_misses::total             2471                       # number of ReadCleanReq misses
system.l2.ReadCleanReq_miss_latency::.cpu.inst    184429500                       # number of ReadCleanReq miss cycles
system.l2.ReadCleanReq_miss_latency::total    184429500                       # number of ReadCleanReq miss cycles
system.l2.ReadCleanReq_accesses::.cpu.inst         2471                       # number of ReadCleanReq accesses(hits+misses)
system.l2.ReadCleanReq_accesses::total           2471                       # number of ReadCleanReq accesses(hits+misses)
system.l2.ReadCleanReq_miss_rate::.cpu.inst            1                       # miss rate for ReadCleanReq accesses
system.l2.ReadCleanReq_miss_rate::total             1                       # miss rate for ReadCleanReq accesses
system.l2.ReadCleanReq_avg_miss_latency::.cpu.inst 74637.596115                       # average ReadCleanReq miss latency
system.l2.ReadCleanReq_avg_miss_latency::total 74637.596115                       # average ReadCleanReq miss latency
system.l2.ReadCleanReq_mshr_misses::.cpu.inst         2471                       # number of ReadCleanReq MSHR misses
system.l2.ReadCleanReq_mshr_misses::total         2471                       # number of ReadCleanReq MSHR misses
system.l2.ReadCleanReq_mshr_miss_latency::.cpu.inst    159719500                       # number of ReadCleanReq MSHR miss cycles
system.l2.ReadCleanReq_mshr_miss_latency::total    159719500                       # number of ReadCleanReq MSHR miss cycles
system.l2.ReadCleanReq_mshr_miss_rate::.cpu.inst            1                       # mshr miss rate for ReadCleanReq accesses
system.l2.ReadCleanReq_mshr_miss_rate::total            1                       # mshr miss rate for ReadCleanReq accesses
system.l2.ReadCleanReq_avg_mshr_miss_latency::.cpu.inst 64637.596115                       # average ReadCleanReq mshr miss latency
system.l2.ReadCleanReq_avg_mshr_miss_latency::total 64637.596115                       # average ReadCleanReq mshr miss latency
system.l2.ReadSharedReq_hits::.cpu.data         11106                       # number of ReadSharedReq hits
system.l2.ReadSharedReq_hits::total             11106                       # number of ReadSharedReq hits
system.l2.ReadSharedReq_misses::.cpu.data         4816                       # number of ReadSharedReq misses
system.l2.ReadSharedReq_misses::total            4816                       # number of ReadSharedReq misses
system.l2.ReadSharedReq_miss_latency::.cpu.data    391807500                       # number of ReadSharedReq miss cycles
system.l2.ReadSharedReq_miss_latency::total    391807500                       # number of ReadSharedReq miss cycles
system.l2.ReadSharedReq_accesses::.cpu.data        15922                       # number of ReadSharedReq accesses(hits+misses)
system.l2.ReadSharedReq_accesses::total         15922                       # number of ReadSharedReq accesses(hits+misses)
system.l2.ReadSharedReq_miss_rate::.cpu.data     0.302475                       # miss rate for ReadSharedReq accesses
system.l2.ReadSharedReq_miss_rate::total     0.302475                       # miss rate for ReadSharedReq accesses
system.l2.ReadSharedReq_avg_miss_latency::.cpu.data 81355.377907                       # average ReadSharedReq miss latency
system.l2.ReadSharedReq_avg_miss_latency::total 81355.377907                       # average ReadSharedReq miss latency
system.l2.ReadSharedReq_mshr_misses::.cpu.data         4816                       # number of ReadSharedReq MSHR misses
system.l2.ReadSharedReq_mshr_misses::total         4816                       # number of ReadSharedReq MSHR misses
system.l2.ReadSharedReq_mshr_miss_latency::.cpu.data    343647500                       # number of ReadSharedReq MSHR miss cycles
system.l2.ReadSharedReq_mshr_miss_latency::total    343647500                       # number of ReadSharedReq MSHR miss cycles
system.l2.ReadSharedReq_mshr_miss_rate::.cpu.data     0.302475                       # mshr miss rate for ReadSharedReq accesses
system.l2.ReadSharedReq_mshr_miss_rate::total     0.302475                       # mshr miss rate for ReadSharedReq accesses
system.l2.ReadSharedReq_avg_mshr_miss_latency::.cpu.data 71355.377907                       # average ReadSharedReq mshr miss latency
system.l2.ReadSharedReq_avg_mshr_miss_latency::total 71355.377907                       # average ReadSharedReq mshr miss latency
system.l2.power_state.pwrStateResidencyTicks::UNDEFINED 192985157500                       # Cumulative time (in ticks) in various power states
system.l2.tags.tagsinuse                  4074.225106                       # Cycle average of tags in use
system.l2.tags.total_refs                      123771                       # Total number of references to valid blocks.
system.l2.tags.sampled_refs                     70459                       # Sample count of references to valid blocks.
system.l2.tags.avg_refs                      1.756639                       # Average number of references to valid blocks.
system.l2.tags.warmup_cycle                     77000                       # Cycle when the warmup percentage was hit.
system.l2.tags.occ_blocks::.writebacks    2905.284767                       # Average occupied blocks per requestor
system.l2.tags.occ_blocks::.cpu.inst        53.361796                       # Average occupied blocks per requestor
system.l2.tags.occ_blocks::.cpu.data      1115.578543                       # Average occupied blocks per requestor
system.l2.tags.occ_percent::.writebacks      0.709298                       # Average percentage of cache occupancy
system.l2.tags.occ_percent::.cpu.inst        0.013028                       # Average percentage of cache occupancy
system.l2.tags.occ_percent::.cpu.data        0.272358                       # Average percentage of cache occupancy
system.l2.tags.occ_percent::total            0.994684                       # Average percentage of cache occupancy
system.l2.tags.occ_task_id_blocks::1024          4096                       # Occupied blocks per task id
system.l2.tags.age_task_id_blocks_1024::2            9                       # Occupied blocks per task id
system.l2.tags.age_task_id_blocks_1024::3          704                       # Occupied blocks per task id
system.l2.tags.age_task_id_blocks_1024::4         3383                       # Occupied blocks per task id
system.l2.tags.occ_task_id_percent::1024            1                       # Percentage of cache occupancy per task id
system.l2.tags.tag_accesses                    325507                       # Number of tag accesses
system.l2.tags.data_accesses                   325507                       # Number of data accesses
system.l2.tags.power_state.pwrStateResidencyTicks::UNDEFINED 192985157500                       # Cumulative time (in ticks) in various power states
system.mem_ctrls.avgPriority_.writebacks::samples      5720.00                       # Average QoS priority value for accepted requests
system.mem_ctrls.avgPriority_.cpu.inst::samples      2471.00                       # Average QoS priority value for accepted requests
system.mem_ctrls.avgPriority_.cpu.data::samples     19168.00                       # Average QoS priority value for accepted requests
system.mem_ctrls.priorityMinLatency      0.000000018750                       # per QoS priority minimum request to response latency (s)
system.mem_ctrls.priorityMaxLatency      0.064599924500                       # per QoS priority maximum request to response latency (s)
system.mem_ctrls.numReadWriteTurnArounds          325                       # Number of turnarounds from READ to WRITE
system.mem_ctrls.numWriteReadTurnArounds          325                       # Number of turnarounds from WRITE to READ
system.mem_ctrls.numStayReadState              102713                       # Number of times bus staying in READ state
system.mem_ctrls.numStayWriteState               5377                       # Number of times bus staying in WRITE state
system.mem_ctrls.readReqs                       22229                       # Number of read requests accepted
system.mem_ctrls.writeReqs                      10098                       # Number of write requests accepted
system.mem_ctrls.readBursts                     22229                       # Number of controller read bursts, including those serviced by the write queue
system.mem_ctrls.writeBursts                    10098                       # Number of controller write bursts, including those merged in the write queue
system.mem_ctrls.servicedByWrQ                    590                       # Number of controller read bursts serviced by the write queue
system.mem_ctrls.mergedWrBursts                  4378                       # Number of controller write bursts merged with an existing one
system.mem_ctrls.neitherReadNorWriteReqs            0                       # Number of requests that are neither read nor write
system.mem_ctrls.avgRdQLen                       1.00                       # Average read queue length when enqueuing
system.mem_ctrls.avgWrQLen                      24.09                       # Average write queue length when enqueuing
system.mem_ctrls.numRdRetry                         0                       # Number of times read queue was full causing retry
system.mem_ctrls.numWrRetry                         0                       # Number of times write queue was full causing retry
system.mem_ctrls.readPktSize::0                     0                       # Read request sizes (log2)
system.mem_ctrls.readPktSize::1                     0                       # Read request sizes (log2)
system.mem_ctrls.readPktSize::2                     0                       # Read request sizes (log2)
system.mem_ctrls.readPktSize::3                     0                       # Read request sizes (log2)
system.mem_ctrls.readPktSize::4                     0                       # Read request sizes (log2)
system.mem_ctrls.readPktSize::5                 22229                       # Read request sizes (log2)
system.mem_ctrls.writePktSize::0                    0                       # Write request sizes (log2)
system.mem_ctrls.writePktSize::1                    0                       # Write request sizes (log2)
system.mem_ctrls.writePktSize::2                    0                       # Write request sizes (log2)
system.mem_ctrls.writePktSize::3                    0                       # Write request sizes (log2)
system.mem_ctrls.writePktSize::4                    0                       # Write request sizes (log2)
system.mem_ctrls.writePktSize::5                10098                       # Write request sizes (log2)
system.mem_ctrls.rdQLenPdf::0                   20992                       # What read queue length does an incoming req see
system.mem_ctrls.rdQLenPdf::1                     642                       # What read queue length does an incoming req see
system.mem_ctrls.rdQLenPdf::2                       5                       # What read queue length does an incoming req see
system.mem_ctrls.rdQLenPdf::3                       0                       # What read queue length does an incoming req see
system.mem_ctrls.rdQLenPdf::4                       0                       # What read queue length does an incoming req see
system.mem_ctrls.rdQLenPdf::5                       0                       # What read queue length does an incoming req see
system.mem_ctrls.rdQLenPdf::6                       0                       # What read queue length does an incoming req see
system.mem_ctrls.rdQLenPdf::7                       0                       # What read queue length does an incoming req see
system.mem_ctrls.rdQLenPdf::8                       0                       # What read queue length does an incoming req see
system.mem_ctrls.rdQLenPdf::9                       0                       # What read queue length does an incoming req see
system.mem_ctrls.rdQLenPdf::10                      0                       # What read queue length does an incoming req see
system.mem_ctrls.rdQLenPdf::11                      0                       # What read queue length does an incoming req see
system.mem_ctrls.rdQLenPdf::12                      0                       # What read queue length does an incoming req see
system.mem_ctrls.rdQLenPdf::13                      0                       # What read queue length does an incoming req see
system.mem_ctrls.rdQLenPdf::14                      0                       # What read queue length does an incoming req see
system.mem_ctrls.rdQLenPdf::15                      0                       # What read queue length does an incoming req see
system.mem_ctrls.rdQLenPdf::16                      0                       # What read queue length does an incoming req see
system.mem_ctrls.rdQLenPdf::17                      0                       # What read queue length does an incoming req see
system.mem_ctrls.rdQLenPdf::18                      0                       # What read queue length does an incoming req see
system.mem_ctrls.rdQLenPdf::19                      0                       # What read queue length does an incoming req see
system.mem_ctrls.rdQLenPdf::20                      0                       # What read queue length does an incoming req see
system.mem_ctrls.rdQLenPdf::21                      0                       # What read queue length does an incoming req see
system.mem_ctrls.rdQLenPdf::22                      0                       # What read queue length does an incoming req see
system.mem_ctrls.rdQLenPdf::23                      0                       # What read queue length does an incoming req see
system.mem_ctrls.rdQLenPdf::24                      0                       # What read queue length does an incoming req see
system.mem_ctrls.rdQLenPdf::25                      0                       # What read queue length does an incoming req see
system.mem_ctrls.rdQLenPdf::26                      0                       # What read queue length does an incoming req see
system.mem_ctrls.rdQLenPdf::27                      0                       # What read queue length does an incoming req see
system.mem_ctrls.rdQLenPdf::28                      0                       # What read queue length does an incoming req see
system.mem_ctrls.rdQLenPdf::29                      0                       # What read queue length does an incoming req see
system.mem_ctrls.rdQLenPdf::30                      0                       # What read queue length does an incoming req see
system.mem_ctrls.rdQLenPdf::31                      0                       # What read queue length does an incoming req see
system.mem_ctrls.wrQLenPdf::0                       1                       # What write queue length does an incoming req see
system.mem_ctrls.wrQLenPdf::1                       1                       # What write queue length does an incoming req see
system.mem_ctrls.wrQLenPdf::2                       1                       # What write queue length does an incoming req see
system.mem_ctrls.wrQLenPdf::3                       1                       # What write queue length does an incoming req see
system.mem_ctrls.wrQLenPdf::4                       1                       # What write queue length does an incoming req see
system.mem_ctrls.wrQLenPdf::5                       1                       # What write queue length does an incoming req see
system.mem_ctrls.wrQLenPdf::6                       1                       # What write queue length does an incoming req see
system.mem_ctrls.wrQLenPdf::7                       1                       # What write queue length does an incoming req see
system.mem_ctrls.wrQLenPdf::8                       1                       # What write queue length does an incoming req see
system.mem_ctrls.wrQLenPdf::9                       1                       # What write queue length does an incoming req see
system.mem_ctrls.wrQLenPdf::10                      1                       # What write queue length does an incoming req see
system.mem_ctrls.wrQLenPdf::11                      1                       # What write queue length does an incoming req see
system.mem_ctrls.wrQLenPdf::12                      1                       # What write queue length does an incoming req see
system.mem_ctrls.wrQLenPdf::13                      1                       # What write queue length does an incoming req see
system.mem_ctrls.wrQLenPdf::14                      1                       # What write queue length does an incoming req see
system.mem_ctrls.wrQLenPdf::15                    242                       # What write queue length does an incoming req see
system.mem_ctrls.wrQLenPdf::16                    244                       # What write queue length does an incoming req see
system.mem_ctrls.wrQLenPdf::17                    324                       # What write queue length does an incoming req see
system.mem_ctrls.wrQLenPdf::18                    328                       # What write queue length does an incoming req see
system.mem_ctrls.wrQLenPdf::19                    328                       # What write queue length does an incoming req see
system.mem_ctrls.wrQLenPdf::20                    326                       # What write queue length does an incoming req see
system.mem_ctrls.wrQLenPdf::21                    326                       # What write queue length does an incoming req see
system.mem_ctrls.wrQLenPdf::22                    326                       # What write queue length does an incoming req see
system.mem_ctrls.wrQLenPdf::23                    327                       # What write queue length does an incoming req see
system.mem_ctrls.wrQLenPdf::24                    326                       # What write queue length does an incoming req see
system.mem_ctrls.wrQLenPdf::25                    326                       # What write queue length does an incoming req see
system.mem_ctrls.wrQLenPdf::26                    328                       # What write queue length does an incoming req see
system.mem_ctrls.wrQLenPdf::27                    326                       # What write queue length does an incoming req see
system.mem_ctrls.wrQLenPdf::28                    326                       # What write queue length does an incoming req see
system.mem_ctrls.wrQLenPdf::29                    326                       # What write queue length does an incoming req see
system.mem_ctrls.wrQLenPdf::30                    326                       # What write queue length does an incoming req see
system.mem_ctrls.wrQLenPdf::31                    325                       # What write queue length does an incoming req see
system.mem_ctrls.wrQLenPdf::32                    325                       # What write queue length does an incoming req see
system.mem_ctrls.wrQLenPdf::33                      0                       # What write queue length does an incoming req see
system.mem_ctrls.wrQLenPdf::34                      0                       # What write queue length does an incoming req see
system.mem_ctrls.wrQLenPdf::35                      0                       # What write queue length does an incoming req see
system.mem_ctrls.wrQLenPdf::36                      0                       # What write queue length does an incoming req see
system.mem_ctrls.wrQLenPdf::37                      0                       # What write queue length does an incoming req see
system.mem_ctrls.wrQLenPdf::38                      0                       # What write queue length does an incoming req see
system.mem_ctrls.wrQLenPdf::39                      0                       # What write queue length does an incoming req see
system.mem_ctrls.wrQLenPdf::40                      0                       # What write queue length does an incoming req see
system.mem_ctrls.wrQLenPdf::41                      0                       # What write queue length does an incoming req see
system.mem_ctrls.wrQLenPdf::42                      0                       # What write queue length does an incoming req see
system.mem_ctrls.wrQLenPdf::43                      0                       # What write queue length does an incoming req see
system.mem_ctrls.wrQLenPdf::44                      0                       # What write queue length does an incoming req see
system.mem_ctrls.wrQLenPdf::45                      0                       # What write queue length does an incoming req see
system.mem_ctrls.wrQLenPdf::46                      0                       # What write queue length does an incoming req see
system.mem_ctrls.wrQLenPdf::47                      0                       # What write queue length does an incoming req see
system.mem_ctrls.wrQLenPdf::48                      0                       # What write queue length does an incoming req see
system.mem_ctrls.wrQLenPdf::49                      0                       # What write queue length does an incoming req see
system.mem_ctrls.wrQLenPdf::50                      0                       # What write queue length does an incoming req see
system.mem_ctrls.wrQLenPdf::51                      0                       # What write queue length does an incoming req see
system.mem_ctrls.wrQLenPdf::52                      0                       # What write queue length does an incoming req see
system.mem_ctrls.wrQLenPdf::53                      0                       # What write queue length does an incoming req see
system.mem_ctrls.wrQLenPdf::54                      0                       # What write queue length does an incoming req see
system.mem_ctrls.wrQLenPdf::55                      0                       # What write queue length does an incoming req see
system.mem_ctrls.wrQLenPdf::56                      0                       # What write queue length does an incoming req see
system.mem_ctrls.wrQLenPdf::57                      0                       # What write queue length does an incoming req see
system.mem_ctrls.wrQLenPdf::58                      0                       # What write queue length does an incoming req see
system.mem_ctrls.wrQLenPdf::59                      0                       # What write queue length does an incoming req see
system.mem_ctrls.wrQLenPdf::60                      0                       # What write queue length does an incoming req see
system.mem_ctrls.wrQLenPdf::61                      0                       # What write queue length does an incoming req see
system.mem_ctrls.wrQLenPdf::62                      0                       # What write queue length does an incoming req see
system.mem_ctrls.wrQLenPdf::63                      0                       # What write queue length does an incoming req see
system.mem_ctrls.rdPerTurnAround::samples          325                       # Reads before turning the bus around for writes
system.mem_ctrls.rdPerTurnAround::mean      66.427692                       # Reads before turning the bus around for writes
system.mem_ctrls.rdPerTurnAround::gmean     38.268690                       # Reads before turning the bus around for writes
system.mem_ctrls.rdPerTurnAround::stdev    452.675147                       # Reads before turning the bus around for writes
system.mem_ctrls.rdPerTurnAround::0-255           323     99.38%     99.38% # Reads before turning the bus around for writes
system.mem_ctrls.rdPerTurnAround::256-511            1      0.31%     99.69% # Reads before turning the bus around for writes
system.mem_ctrls.rdPerTurnAround::7936-8191            1      0.31%    100.00% # Reads before turning the bus around for writes
system.mem_ctrls.rdPerTurnAround::total           325                       # Reads before turning the bus around for writes
system.mem_ctrls.wrPerTurnAround::samples          325                       # Writes before turning the bus around for reads
system.mem_ctrls.wrPerTurnAround::mean      17.504615                       # Writes before turning the bus around for reads
system.mem_ctrls.wrPerTurnAround::gmean     17.481008                       # Writes before turning the bus around for reads
system.mem_ctrls.wrPerTurnAround::stdev      0.894502                       # Writes before turning the bus around for reads
system.mem_ctrls.wrPerTurnAround::16               83     25.54%     25.54% # Writes before turning the bus around for reads
system.mem_ctrls.wrPerTurnAround::18              238     73.23%     98.77% # Writes before turning the bus around for reads
[...]
system.mem_ctrls.dram.bw_total::.cpu.data      3276190                       # Total bandwidth to/from this memory (bytes/s)
system.mem_ctrls.dram.bw_total::total         5360329                       # Total bandwidth to/from this memory (bytes/s)
system.mem_ctrls.dram.readBursts                21639                       # Number of DRAM read bursts
system.mem_ctrls.dram.writeBursts                5689                       # Number of DRAM write bursts
system.mem_ctrls.dram.perBankRdBursts::0         1619                       # Per bank write bursts
system.mem_ctrls.dram.perBankRdBursts::1         1819                       # Per bank write bursts
system.mem_ctrls.dram.perBankRdBursts::2         1433                       # Per bank write bursts
system.mem_ctrls.dram.perBankRdBursts::3         2251                       # Per bank write bursts
system.mem_ctrls.dram.perBankRdBursts::4         1252                       # Per bank write bursts
system.mem_ctrls.dram.perBankRdBursts::5         1009                       # Per bank write bursts
system.mem_ctrls.dram.perBankRdBursts::6         1144                       # Per bank write bursts
system.mem_ctrls.dram.perBankRdBursts::7         1321                       # Per bank write bursts
system.mem_ctrls.dram.perBankRdBursts::8         1494                       # Per bank write bursts
system.mem_ctrls.dram.perBankRdBursts::9         1187                       # Per bank write bursts
system.mem_ctrls.dram.perBankRdBursts::10         1005                       # Per bank write bursts
system.mem_ctrls.dram.perBankRdBursts::11         1316                       # Per bank write bursts
system.mem_ctrls.dram.perBankRdBursts::12         1001                       # Per bank write bursts
system.mem_ctrls.dram.perBankRdBursts::13         1056                       # Per bank write bursts
system.mem_ctrls.dram.perBankRdBursts::14         1102                       # Per bank write bursts
system.mem_ctrls.dram.perBankRdBursts::15         1630                       # Per bank write bursts
system.mem_ctrls.dram.perBankWrBursts::0          440                       # Per bank write bursts
system.mem_ctrls.dram.perBankWrBursts::1          400                       # Per bank write bursts
system.mem_ctrls.dram.perBankWrBursts::2          347                       # Per bank write bursts
system.mem_ctrls.dram.perBankWrBursts::3          508                       # Per bank write bursts
system.mem_ctrls.dram.perBankWrBursts::4          235                       # Per bank write bursts
system.mem_ctrls.dram.perBankWrBursts::5          293                       # Per bank write bursts
system.mem_ctrls.dram.perBankWrBursts::6          378                       # Per bank write bursts
system.mem_ctrls.dram.perBankWrBursts::7          499                       # Per bank write bursts
system.mem_ctrls.dram.perBankWrBursts::8          472                       # Per bank write bursts
system.mem_ctrls.dram.perBankWrBursts::9          341                       # Per bank write bursts
system.mem_ctrls.dram.perBankWrBursts::10          303                       # Per bank write bursts
system.mem_ctrls.dram.perBankWrBursts::11          392                       # Per bank write bursts
system.mem_ctrls.dram.perBankWrBursts::12          276                       # Per bank write bursts
system.mem_ctrls.dram.perBankWrBursts::13          261                       # Per bank write bursts
system.mem_ctrls.dram.perBankWrBursts::14          174                       # Per bank write bursts
system.mem_ctrls.dram.perBankWrBursts::15          370                       # Per bank write bursts
system.mem_ctrls.dram.totQLat               217133500                       # Total ticks spent queuing
system.mem_ctrls.dram.totBusLat             108195000                       # Total ticks spent in databus transfers
system.mem_ctrls.dram.totMemAccLat          622864750                       # Total ticks spent from burst creation until serviced by the DRAM
system.mem_ctrls.dram.avgQLat                10034.36                       # Average queueing delay per DRAM burst
system.mem_ctrls.dram.avgBusLat               5000.00                       # Average bus latency per DRAM burst
system.mem_ctrls.dram.avgMemAccLat           28784.36                       # Average memory access latency per DRAM burst
system.mem_ctrls.dram.readRowHits               14309                       # Number of row buffer hits during reads
system.mem_ctrls.dram.writeRowHits               4728                       # Number of row buffer hits during writes
system.mem_ctrls.dram.readRowHitRate            66.13                       # Row buffer hit rate for reads
system.mem_ctrls.dram.writeRowHitRate           83.11                       # Row buffer hit rate for writes
system.mem_ctrls.dram.bytesPerActivate::samples         8291                       # Bytes accessed per row activation
system.mem_ctrls.dram.bytesPerActivate::mean   210.950669                       # Bytes accessed per row activation
system.mem_ctrls.dram.bytesPerActivate::gmean   132.724296                       # Bytes accessed per row activation
system.mem_ctrls.dram.bytesPerActivate::stdev   264.017342                       # Bytes accessed per row activation
system.mem_ctrls.dram.bytesPerActivate::0-127         3550     42.82%     42.82% # Bytes accessed per row activation
system.mem_ctrls.dram.bytesPerActivate::128-255         2907     35.06%     77.88% # Bytes accessed per row activation
system.mem_ctrls.dram.bytesPerActivate::256-383          658      7.94%     85.82% # Bytes accessed per row activation
system.mem_ctrls.dram.bytesPerActivate::384-511          191      2.30%     88.12% # Bytes accessed per row activation
system.mem_ctrls.dram.bytesPerActivate::512-639          143      1.72%     89.84% # Bytes accessed per row activation
system.mem_ctrls.dram.bytesPerActivate::640-767          128      1.54%     91.39% # Bytes accessed per row activation
system.mem_ctrls.dram.bytesPerActivate::768-895           94      1.13%     92.52% # Bytes accessed per row activation
system.mem_ctrls.dram.bytesPerActivate::896-1023           71      0.86%     93.38% # Bytes accessed per row activation
system.mem_ctrls.dram.bytesPerActivate::1024-1151          549      6.62%    100.00% # Bytes accessed per row activation
system.mem_ctrls.dram.bytesPerActivate::total         8291                       # Bytes accessed per row activation
system.mem_ctrls.dram.bytesRead               1384896                       # Total number of bytes read from DRAM
system.mem_ctrls.dram.bytesWritten             364096                       # Total number of bytes written to DRAM
system.mem_ctrls.dram.avgRdBW                7.176179                       # Average DRAM read bandwidth in MiBytes/s
system.mem_ctrls.dram.avgWrBW                1.886653                       # Average DRAM write bandwidth in MiBytes/s
system.mem_ctrls.dram.peakBW                 12800.00                       # Theoretical peak bandwidth in MiByte/s
system.mem_ctrls.dram.busUtil                    0.07                       # Data bus utilization in percentage
system.mem_ctrls.dram.busUtilRead                0.06                       # Data bus utilization in percentage for reads
system.mem_ctrls.dram.busUtilWrite               0.01                       # Data bus utilization in percentage for writes
system.mem_ctrls.dram.pageHitRate               69.66                       # Row buffer hit rate, read and write combined
system.mem_ctrls.dram.power_state.pwrStateResidencyTicks::UNDEFINED 192985157500                       # Cumulative time (in ticks) in various power states
system.mem_ctrls.dram.rank0.actEnergy        32572680                       # Energy for activate commands per rank (pJ)
system.mem_ctrls.dram.rank0.preEnergy        17312790                       # Energy for precharge commands per rank (pJ)
system.mem_ctrls.dram.rank0.readEnergy       84594720                       # Energy for read commands per rank (pJ)
system.mem_ctrls.dram.rank0.writeEnergy      16182000                       # Energy for write commands per rank (pJ)
system.mem_ctrls.dram.rank0.refreshEnergy 15233852400.000002                       # Energy for refresh commands per rank (pJ)
system.mem_ctrls.dram.rank0.actBackEnergy   9302634270                       # Energy for active background per rank (pJ)
system.mem_ctrls.dram.rank0.preBackEnergy  66272503200                       # Energy for precharge background per rank (pJ)
system.mem_ctrls.dram.rank0.actPowerDownEnergy            0                       # Energy for active power-down per rank (pJ)
system.mem_ctrls.dram.rank0.prePowerDownEnergy            0                       # Energy for precharge power-down per rank (pJ)
system.mem_ctrls.dram.rank0.selfRefreshEnergy            0                       # Energy for self refresh per rank (pJ)
system.mem_ctrls.dram.rank0.totalEnergy   90959652060                       # Total energy per rank (pJ)
system.mem_ctrls.dram.rank0.averagePower   471.329781                       # Core power per rank (mW)
system.mem_ctrls.dram.rank0.totalIdleTime            0                       # Total Idle time Per DRAM Rank
system.mem_ctrls.dram.rank0.pwrStateTime::IDLE 172199043250                       # Time in different power states
system.mem_ctrls.dram.rank0.pwrStateTime::REF   6444100000                       # Time in different power states
system.mem_ctrls.dram.rank0.pwrStateTime::SREF            0                       # Time in different power states
system.mem_ctrls.dram.rank0.pwrStateTime::PRE_PDN            0                       # Time in different power states
system.mem_ctrls.dram.rank0.pwrStateTime::ACT  14342014250                       # Time in different power states
system.mem_ctrls.dram.rank0.pwrStateTime::ACT_PDN            0                       # Time in different power states
system.mem_ctrls.dram.rank1.actEnergy        26625060                       # Energy for activate commands per rank (pJ)
system.mem_ctrls.dram.rank1.preEnergy        14151555                       # Energy for precharge commands per rank (pJ)
system.mem_ctrls.dram.rank1.readEnergy       69907740                       # Energy for read commands per rank (pJ)
system.mem_ctrls.dram.rank1.writeEnergy      13514580                       # Energy for write commands per rank (pJ)
system.mem_ctrls.dram.rank1.refreshEnergy 15233852400.000002                       # Energy for refresh commands per rank (pJ)
system.mem_ctrls.dram.rank1.actBackEnergy   7955551560                       # Energy for active background per rank (pJ)
system.mem_ctrls.dram.rank1.preBackEnergy  67406888640                       # Energy for precharge background per rank (pJ)
system.mem_ctrls.dram.rank1.actPowerDownEnergy            0                       # Energy for active power-down per rank (pJ)
system.mem_ctrls.dram.rank1.prePowerDownEnergy            0                       # Energy for precharge power-down per rank (pJ)
system.mem_ctrls.dram.rank1.selfRefreshEnergy            0                       # Energy for self refresh per rank (pJ)
system.mem_ctrls.dram.rank1.totalEnergy   90720491535                       # Total energy per rank (pJ)
system.mem_ctrls.dram.rank1.averagePower   470.090512                       # Core power per rank (mW)
system.mem_ctrls.dram.rank1.totalIdleTime            0                       # Total Idle time Per DRAM Rank
system.mem_ctrls.dram.rank1.pwrStateTime::IDLE 175164305250                       # Time in different power states
system.mem_ctrls.dram.rank1.pwrStateTime::REF   6444100000                       # Time in different power states
system.mem_ctrls.dram.rank1.pwrStateTime::SREF            0                       # Time in different power states
system.mem_ctrls.dram.rank1.pwrStateTime::PRE_PDN            0                       # Time in different power states
system.mem_ctrls.dram.rank1.pwrStateTime::ACT  11376752250                       # Time in different power states
system.mem_ctrls.dram.rank1.pwrStateTime::ACT_PDN            0                       # Time in different power states
system.mem_ctrls.power_state.pwrStateResidencyTicks::UNDEFINED 192985157500                       # Cumulative time (in ticks) in various power states
system.membus.trans_dist::ReadResp               7287                       # Transaction distribution
system.membus.trans_dist::WritebackDirty        10098                       # Transaction distribution
system.membus.trans_dist::CleanEvict             3893                       # Transaction distribution
system.membus.trans_dist::ReadExReq             14942                       # Transaction distribution
system.membus.trans_dist::ReadExResp            14942                       # Transaction distribution
system.membus.trans_dist::ReadSharedReq          7287                       # Transaction distribution
system.membus.pkt_count_system.l2.mem_side_port::system.mem_ctrls.port        58449                       # Packet count per connected requestor and responder (bytes)
system.membus.pkt_count_system.l2.mem_side_port::total        58449                       # Packet count per connected requestor and responder (bytes)
system.membus.pkt_count::total                  58449                       # Packet count per connected requestor and responder (bytes)
system.membus.pkt_size_system.l2.mem_side_port::system.mem_ctrls.port      1034464                       # Cumulative packet size per connected requestor and responder (bytes)
system.membus.pkt_size_system.l2.mem_side_port::total      1034464                       # Cumulative packet size per connected requestor and responder (bytes)
system.membus.pkt_size::total                 1034464                       # Cumulative packet size per connected requestor and responder (bytes)
system.membus.snoops                                0                       # Total snoops (count)
system.membus.snoopTraffic                          0                       # Total snoop traffic (bytes)
system.membus.snoop_fanout::samples             22229                       # Request fanout histogram
system.membus.snoop_fanout::mean                    0                       # Request fanout histogram
system.membus.snoop_fanout::stdev                   0                       # Request fanout histogram
system.membus.snoop_fanout::underflows              0      0.00%      0.00% # Request fanout histogram
system.membus.snoop_fanout::0                   22229    100.00%    100.00% # Request fanout histogram
system.membus.snoop_fanout::1                       0      0.00%    100.00% # Request fanout histogram
system.membus.snoop_fanout::overflows               0      0.00%    100.00% # Request fanout histogram
system.membus.snoop_fanout::min_value               0                       # Request fanout histogram
system.membus.snoop_fanout::max_value               0                       # Request fanout histogram
system.membus.snoop_fanout::total               22229                       # Request fanout histogram
system.membus.power_state.pwrStateResidencyTicks::UNDEFINED 192985157500                       # Cumulative time (in ticks) in various power states
system.membus.reqLayer2.occupancy            56708000                       # Layer occupancy (ticks)
system.membus.reqLayer2.utilization               0.0                       # Layer utilization (%)
system.membus.respLayer1.occupancy           73978250                       # Layer occupancy (ticks)
system.membus.respLayer1.utilization              0.0                       # Layer utilization (%)
system.tol2bus.trans_dist::ReadResp             18393                       # Transaction distribution
system.tol2bus.trans_dist::WritebackDirty        66493                       # Transaction distribution
system.tol2bus.trans_dist::WritebackClean            1                       # Transaction distribution
system.tol2bus.trans_dist::CleanEvict           60348                       # Transaction distribution
system.tol2bus.trans_dist::ReadExReq            48652                       # Transaction distribution
system.tol2bus.trans_dist::ReadExResp           48652                       # Transaction distribution
system.tol2bus.trans_dist::ReadCleanReq          2471                       # Transaction distribution
system.tol2bus.trans_dist::ReadSharedReq        15922                       # Transaction distribution
system.tol2bus.pkt_count_system.cpu.icache.mem_side_port::system.l2.cpu_side_port         4943                       # Packet count per connected requestor and responder (bytes)
system.tol2bus.pkt_count_system.cpu.dcache.mem_side_port::system.l2.cpu_side_port       189626                       # Packet count per connected requestor and responder (bytes)
system.tol2bus.pkt_count::total                194569                       # Packet count per connected requestor and responder (bytes)
system.tol2bus.pkt_size_system.cpu.icache.mem_side_port::system.l2.cpu_side_port        79104                       # Cumulative packet size per connected requestor and responder (bytes)
system.tol2bus.pkt_size_system.cpu.dcache.mem_side_port::system.l2.cpu_side_port      3871008                       # Cumulative packet size per connected requestor and responder (bytes)
system.tol2bus.pkt_size::total                3950112                       # Cumulative packet size per connected requestor and responder (bytes)
system.tol2bus.snoops                           66363                       # Total snoops (count)
system.tol2bus.snoopTraffic                    323136                       # Total snoop traffic (bytes)
system.tol2bus.snoop_fanout::samples           133408                       # Request fanout histogram
system.tol2bus.snoop_fanout::mean            0.420702                       # Request fanout histogram
system.tol2bus.snoop_fanout::stdev           0.493674                       # Request fanout histogram
system.tol2bus.snoop_fanout::underflows             0      0.00%      0.00% # Request fanout histogram
system.tol2bus.snoop_fanout::0                  77283     57.93%     57.93% # Request fanout histogram
system.tol2bus.snoop_fanout::1                  56125     42.07%    100.00% # Request fanout histogram
system.tol2bus.snoop_fanout::2                      0      0.00%    100.00% # Request fanout histogram
system.tol2bus.snoop_fanout::3                      0      0.00%    100.00% # Request fanout histogram
system.tol2bus.snoop_fanout::4                      0      0.00%    100.00% # Request fanout histogram
system.tol2bus.snoop_fanout::overflows              0      0.00%    100.00% # Request fanout histogram
system.tol2bus.snoop_fanout::min_value              0                       # Request fanout histogram
system.tol2bus.snoop_fanout::max_value              1                       # Request fanout histogram
system.tol2bus.snoop_fanout::total             133408                       # Request fanout histogram
system.tol2bus.power_state.pwrStateResidencyTicks::UNDEFINED 192985157500                       # Cumulative time (in ticks) in various power states
system.tol2bus.reqLayer0.occupancy           91960000                       # Layer occupancy (ticks)
system.tol2bus.reqLayer0.utilization              0.0                       # Layer utilization (%)
system.tol2bus.respLayer0.occupancy           2471000                       # Layer occupancy (ticks)
system.tol2bus.respLayer0.utilization             0.0                       # Layer utilization (%)
system.tol2bus.respLayer1.occupancy          64574000                       # Layer occupancy (ticks)
system.tol2bus.respLayer1.utilization             0.0                       # Layer utilization (%)
system.voltage_domain.voltage                       1                       # Voltage in Volts

---------- End Simulation Statistics   ----------
