
---------- Begin Simulation Statistics ----------
final_tick                               192985157500                       # Number of ticks from beginning of simulation (restored from checkpoints and never reset)
host_inst_rate                                 863273                       # Simulator instruction rate (inst/s)
host_mem_usage                                 672584                       # Number of bytes of host memory used
host_op_rate                                  1116672                       # Simulator op (including micro ops) rate (op/s)
host_seconds                                   115.84                       # Real time elapsed on the host
host_tick_rate                             1665986280                       # Simulator tick rate (ticks/s)
sim_freq                                 1000000000000                       # Frequency of simulated ticks
sim_insts                                   100000000                       # Number of instructions simulated
sim_ops                                     129353490                       # Number of ops (including micro ops) simulated
sim_seconds                                  0.192985                       # Number of seconds simulated
sim_ticks                                192985157500                       # Number of ticks simulated
system.cpu.Branches                           5555718                       # Number of branches fetched
system.cpu.committedInsts                   100000000                       # Number of instructions committed
system.cpu.committedOps                     129353490                       # Number of ops (including micro ops) committed
system.cpu.idle_fraction                            0                       # Percentage of idle cycles
system.cpu.not_idle_fraction                        1                       # Percentage of non-idle cycles
system.cpu.numCycles                        385970315                       # number of cpu cycles simulated
system.cpu.numWorkItemsCompleted                    0                       # number of work items this cpu completed
system.cpu.numWorkItemsStarted                      0                       # number of work items this cpu started
system.cpu.num_busy_cycles                  385970315                       # Number of busy cycles
system.cpu.num_cc_register_reads             37536336                       # number of times the CC registers were read
system.cpu.num_cc_register_writes            52077182                       # number of times the CC registers were written
system.cpu.num_conditional_control_insts      5078798                       # number of instructions that are conditional controls
system.cpu.num_fp_alu_accesses                5734498                       # Number of float alu accesses
system.cpu.num_fp_insts                       5734498                       # number of float instructions
system.cpu.num_fp_register_reads              4648737                       # number of times the floating registers were read
system.cpu.num_fp_register_writes             4867956                       # number of times the floating registers were written
system.cpu.num_func_calls                      317051                       # number of times a function call or return occured
system.cpu.num_idle_cycles                          0                       # Number of idle cycles
system.cpu.num_int_alu_accesses             125241022                       # Number of integer alu accesses
system.cpu.num_int_insts                    125241022                       # number of integer instructions
system.cpu.num_int_register_reads           293410038                       # number of times the integer registers were read
system.cpu.num_int_register_writes          113873586                       # number of times the integer registers were written
system.cpu.num_load_insts                    43555354                       # Number of load instructions
system.cpu.num_mem_refs                      50714744                       # number of memory refs
system.cpu.num_store_insts                    7159390                       # Number of store instructions
system.cpu.num_vec_alu_accesses                     0                       # Number of vector alu accesses
system.cpu.num_vec_insts                            0                       # number of vector instructions
system.cpu.num_vec_register_reads                   0                       # number of times the vector registers were read
system.cpu.num_vec_register_writes                  0                       # number of times the vector registers were written
system.cpu.op_class::No_OpClass                550507      0.43%      0.43% # Class of executed instruction
system.cpu.op_class::IntAlu                  73097378     56.50%     56.92% # Class of executed instruction
system.cpu.op_class::IntMult                   132844      0.10%     57.02% # Class of executed instruction
system.cpu.op_class::IntDiv                   1253858      0.97%     57.99% # Class of executed instruction
system.cpu.op_class::FloatAdd                 1903691      1.47%     59.46% # Class of executed instruction
system.cpu.op_class::FloatCmp                       0      0.00%     59.46% # Class of executed instruction
system.cpu.op_class::FloatCvt                       0      0.00%     59.46% # Class of executed instruction
system.cpu.op_class::FloatMult                      0      0.00%     59.46% # Class of executed instruction
system.cpu.op_class::FloatMultAcc                   0      0.00%     59.46% # Class of executed instruction
system.cpu.op_class::FloatDiv                       0      0.00%     59.46% # Class of executed instruction
system.cpu.op_class::FloatMisc                      0      0.00%     59.46% # Class of executed instruction
system.cpu.op_class::FloatSqrt                      0      0.00%     59.46% # Class of executed instruction
system.cpu.op_class::SimdAdd                      494      0.00%     59.47% # Class of executed instruction
system.cpu.op_class::SimdAddAcc                     0      0.00%     59.47% # Class of executed instruction
system.cpu.op_class::SimdAlu                   218994      0.17%     59.63% # Class of executed instruction
system.cpu.op_class::SimdCmp                      180      0.00%     59.63% # Class of executed instruction
system.cpu.op_class::SimdCvt                   180632      0.14%     59.77% # Class of executed instruction
system.cpu.op_class::SimdMisc                  402789      0.31%     60.09% # Class of executed instruction
system.cpu.op_class::SimdMult                       0      0.00%     60.09% # Class of executed instruction
system.cpu.op_class::SimdMultAcc                    0      0.00%     60.09% # Class of executed instruction
system.cpu.op_class::SimdShift                     34      0.00%     60.09% # Class of executed instruction
system.cpu.op_class::SimdShiftAcc                   0      0.00%     60.09% # Class of executed instruction
system.cpu.op_class::SimdDiv                        0      0.00%     60.09% # Class of executed instruction
system.cpu.op_class::SimdSqrt                       0      0.00%     60.09% # Class of executed instruction
system.cpu.op_class::SimdFloatAdd              322927      0.25%     60.34% # Class of executed instruction
system.cpu.op_class::SimdFloatAlu                   0      0.00%     60.34% # Class of executed instruction
system.cpu.op_class::SimdFloatCmp                   0      0.00%     60.34% # Class of executed instruction
system.cpu.op_class::SimdFloatCvt              493438      0.38%     60.72% # Class of executed instruction
system.cpu.op_class::SimdFloatDiv               62796      0.05%     60.77% # Class of executed instruction
system.cpu.op_class::SimdFloatMisc                  0      0.00%     60.77% # Class of executed instruction
system.cpu.op_class::SimdFloatMult              49007      0.04%     60.80% # Class of executed instruction
system.cpu.op_class::SimdFloatMultAcc               0      0.00%     60.80% # Class of executed instruction
system.cpu.op_class::SimdFloatSqrt                  0      0.00%     60.80% # Class of executed instruction
system.cpu.op_class::SimdReduceAdd                  0      0.00%     60.80% # Class of executed instruction
system.cpu.op_class::SimdReduceAlu                  0      0.00%     60.80% # Class of executed instruction
system.cpu.op_class::SimdReduceCmp                  0      0.00%     60.80% # Class of executed instruction
system.cpu.op_class::SimdFloatReduceAdd             0      0.00%     60.80% # Class of executed instruction
system.cpu.op_class::SimdFloatReduceCmp             0      0.00%     60.80% # Class of executed instruction
system.cpu.op_class::SimdAes                        0      0.00%     60.80% # Class of executed instruction
system.cpu.op_class::SimdAesMix                     0      0.00%     60.80% # Class of executed instruction
system.cpu.op_class::SimdSha1Hash                   0      0.00%     60.80% # Class of executed instruction
system.cpu.op_class::SimdSha1Hash2                  0      0.00%     60.80% # Class of executed instruction
system.cpu.op_class::SimdSha256Hash                 0      0.00%     60.80% # Class of executed instruction
system.cpu.op_class::SimdSha256Hash2                0      0.00%     60.80% # Class of executed instruction
system.cpu.op_class::SimdShaSigma2                  0      0.00%     60.80% # Class of executed instruction
system.cpu.op_class::SimdShaSigma3                  0      0.00%     60.80% # Class of executed instruction
system.cpu.op_class::SimdPredAlu                    0      0.00%     60.80% # Class of executed instruction
system.cpu.op_class::MemRead                 42068750     32.51%     93.32% # Class of executed instruction
system.cpu.op_class::MemWrite                 6726912      5.20%     98.52% # Class of executed instruction
system.cpu.op_class::FloatMemRead             1486604      1.15%     99.67% # Class of executed instruction
system.cpu.op_class::FloatMemWrite             432478      0.33%    100.00% # Class of executed instruction
system.cpu.op_class::IprAccess                      0      0.00%    100.00% # Class of executed instruction
system.cpu.op_class::InstPrefetch                   0      0.00%    100.00% # Class of executed instruction
system.cpu.op_class::total                  129384313                       # Class of executed instruction
system.cpu.workload.numSyscalls                    35                       # Number of system calls
system.membus.snoop_filter.hit_multi_requests            0                       # Number of requests hitting in the snoop filter with multiple (>1) holders of the requested data.
system.membus.snoop_filter.hit_multi_snoops            0                       # Number of snoops hitting in the snoop filter with multiple (>1) holders of the requested data.
system.membus.snoop_filter.hit_single_requests        14051                       # Number of requests hitting in the snoop filter with a single holder of the requested data.
system.membus.snoop_filter.hit_single_snoops            0                       # Number of snoops hitting in the snoop filter with a single holder of the requested data.
system.membus.snoop_filter.tot_requests         36286                       # Total number of requests made to the snoop filter.
system.membus.snoop_filter.tot_snoops               0                       # Total number of snoops made to the snoop filter.
system.tol2bus.snoop_filter.hit_multi_requests            0                       # Number of requests hitting in the snoop filter with multiple (>1) holders of the requested data.
system.tol2bus.snoop_filter.hit_multi_snoops            0                       # Number of snoops hitting in the snoop filter with multiple (>1) holders of the requested data.
system.tol2bus.snoop_filter.hit_single_requests        60542                       # Number of requests hitting in the snoop filter with a single holder of the requested data.
system.tol2bus.snoop_filter.hit_single_snoops        56132                       # Number of snoops hitting in the snoop filter with a single holder of the requested data.
system.tol2bus.snoop_filter.tot_requests       127596                       # Total number of requests made to the snoop filter.
system.tol2bus.snoop_filter.tot_snoops          56132                       # Total number of snoops made to the snoop filter.
system.clk_domain.clock                          1000                       # Clock period in ticks
system.cpu.dcache.demand_hits::.cpu.data     50911213                       # number of demand (read+write) hits
system.cpu.dcache.demand_hits::total         50911213                       # number of demand (read+write) hits
system.cpu.dcache.overall_hits::.cpu.data     50923369                       # number of overall hits
system.cpu.dcache.overall_hits::total        50923369                       # number of overall hits
system.cpu.dcache.demand_misses::.cpu.data        61446                       # number of demand (read+write) misses
system.cpu.dcache.demand_misses::total          61446                       # number of demand (read+write) misses
system.cpu.dcache.overall_misses::.cpu.data        64644                       # number of overall misses
system.cpu.dcache.overall_misses::total         64644                       # number of overall misses
system.cpu.dcache.demand_miss_latency::.cpu.data   2102894000                       # number of demand (read+write) miss cycles
system.cpu.dcache.demand_miss_latency::total   2102894000                       # number of demand (read+write) miss cycles
system.cpu.dcache.overall_miss_latency::.cpu.data   2102894000                       # number of overall miss cycles
system.cpu.dcache.overall_miss_latency::total   2102894000                       # number of overall miss cycles
system.cpu.dcache.demand_accesses::.cpu.data     50972659                       # number of demand (read+write) accesses
system.cpu.dcache.demand_accesses::total     50972659                       # number of demand (read+write) accesses
system.cpu.dcache.overall_accesses::.cpu.data     50988013                       # number of overall (read+write) accesses
system.cpu.dcache.overall_accesses::total     50988013                       # number of overall (read+write) accesses
system.cpu.dcache.demand_miss_rate::.cpu.data     0.001205                       # miss rate for demand accesses
system.cpu.dcache.demand_miss_rate::total     0.001205                       # miss rate for demand accesses
system.cpu.dcache.overall_miss_rate::.cpu.data     0.001268                       # miss rate for overall accesses
system.cpu.dcache.overall_miss_rate::total     0.001268                       # miss rate for overall accesses
system.cpu.dcache.demand_avg_miss_latency::.cpu.data 34223.448231                       # average overall miss latency
system.cpu.dcache.demand_avg_miss_latency::total 34223.448231                       # average overall miss latency
system.cpu.dcache.overall_avg_miss_latency::.cpu.data 32530.381783                       # average overall miss latency
system.cpu.dcache.overall_avg_miss_latency::total 32530.381783                       # average overall miss latency
system.cpu.dcache.blocked_cycles::no_mshrs          346                       # number of cycles access was blocked
system.cpu.dcache.blocked_cycles::no_targets            0                       # number of cycles access was blocked
system.cpu.dcache.blocked::no_mshrs                 1                       # number of cycles access was blocked
system.cpu.dcache.blocked::no_targets               0                       # number of cycles access was blocked
system.cpu.dcache.avg_blocked_cycles::no_mshrs          346                       # average number of cycles each access was blocked
system.cpu.dcache.avg_blocked_cycles::no_targets          nan                       # average number of cycles each access was blocked
system.cpu.dcache.writebacks::.writebacks        56395                       # number of writebacks
system.cpu.dcache.writebacks::total             56395                       # number of writebacks
system.cpu.dcache.demand_mshr_misses::.cpu.data        61446                       # number of demand (read+write) MSHR misses
system.cpu.dcache.demand_mshr_misses::total        61446                       # number of demand (read+write) MSHR misses
system.cpu.dcache.overall_mshr_misses::.cpu.data        64574                       # number of overall MSHR misses
system.cpu.dcache.overall_mshr_misses::total        64574                       # number of overall MSHR misses
system.cpu.dcache.demand_mshr_miss_latency::.cpu.data   2041448000                       # number of demand (read+write) MSHR miss cycles
system.cpu.dcache.demand_mshr_miss_latency::total   2041448000                       # number of demand (read+write) MSHR miss cycles
system.cpu.dcache.overall_mshr_miss_latency::.cpu.data   2129507000                       # number of overall MSHR miss cycles
system.cpu.dcache.overall_mshr_miss_latency::total   2129507000                       # number of overall MSHR miss cycles
system.cpu.dcache.demand_mshr_miss_rate::.cpu.data     0.001205                       # mshr miss rate for demand accesses
system.cpu.dcache.demand_mshr_miss_rate::total     0.001205                       # mshr miss rate for demand accesses
system.cpu.dcache.overall_mshr_miss_rate::.cpu.data     0.001266                       # mshr miss rate for overall accesses
system.cpu.dcache.overall_mshr_miss_rate::total     0.001266                       # mshr miss rate for overall accesses
system.cpu.dcache.demand_avg_mshr_miss_latency::.cpu.data 33223.448231                       # average overall mshr miss latency
system.cpu.dcache.demand_avg_mshr_miss_latency::total 33223.448231                       # average overall mshr miss latency
system.cpu.dcache.overall_avg_mshr_miss_latency::.cpu.data 32977.777434                       # average overall mshr miss latency
system.cpu.dcache.overall_avg_mshr_miss_latency::total 32977.777434                       # average overall mshr miss latency
system.cpu.dcache.replacements                  60478                       # number of replacements
system.cpu.dcache.ReadReq_hits::.cpu.data     43831187                       # number of ReadReq hits
system.cpu.dcache.ReadReq_hits::total        43831187                       # number of ReadReq hits
system.cpu.dcache.ReadReq_misses::.cpu.data        12794                       # number of ReadReq misses
system.cpu.dcache.ReadReq_misses::total         12794                       # number of ReadReq misses
system.cpu.dcache.ReadReq_miss_latency::.cpu.data    455482500                       # number of ReadReq miss cycles
system.cpu.dcache.ReadReq_miss_latency::total    455482500                       # number of ReadReq miss cycles
system.cpu.dcache.ReadReq_accesses::.cpu.data     43843981                       # number of ReadReq accesses(hits+misses)
system.cpu.dcache.ReadReq_accesses::total     43843981                       # number of ReadReq accesses(hits+misses)
system.cpu.dcache.ReadReq_miss_rate::.cpu.data     0.000292                       # miss rate for ReadReq accesses
system.cpu.dcache.ReadReq_miss_rate::total     0.000292                       # miss rate for ReadReq accesses
system.cpu.dcache.ReadReq_avg_miss_latency::.cpu.data 35601.258402                       # average ReadReq miss latency
system.cpu.dcache.ReadReq_avg_miss_latency::total 35601.258402                       # average ReadReq miss latency
system.cpu.dcache.ReadReq_mshr_misses::.cpu.data        12794                       # number of ReadReq MSHR misses
system.cpu.dcache.ReadReq_mshr_misses::total        12794                       # number of ReadReq MSHR misses
system.cpu.dcache.ReadReq_mshr_miss_latency::.cpu.data    442688500                       # number of ReadReq MSHR miss cycles
system.cpu.dcache.ReadReq_mshr_miss_latency::total    442688500                       # number of ReadReq MSHR miss cycles
system.cpu.dcache.ReadReq_mshr_miss_rate::.cpu.data     0.000292                       # mshr miss rate for ReadReq accesses
system.cpu.dcache.ReadReq_mshr_miss_rate::total     0.000292                       # mshr miss rate for ReadReq accesses
system.cpu.dcache.ReadReq_avg_mshr_miss_latency::.cpu.data 34601.258402                       # average ReadReq mshr miss latency
system.cpu.dcache.ReadReq_avg_mshr_miss_latency::total 34601.258402                       # average ReadReq mshr miss latency
system.cpu.dcache.WriteReq_hits::.cpu.data      7080026                       # number of WriteReq hits
system.cpu.dcache.WriteReq_hits::total        7080026                       # number of WriteReq hits
system.cpu.dcache.WriteReq_misses::.cpu.data        48652                       # number of WriteReq misses
system.cpu.dcache.WriteReq_misses::total        48652                       # number of WriteReq misses
system.cpu.dcache.WriteReq_miss_latency::.cpu.data   1647411500                       # number of WriteReq miss cycles
system.cpu.dcache.WriteReq_miss_latency::total   1647411500                       # number of WriteReq miss cycles
system.cpu.dcache.WriteReq_accesses::.cpu.data      7128678                       # number of WriteReq accesses(hits+misses)
system.cpu.dcache.WriteReq_accesses::total      7128678                       # number of WriteReq accesses(hits+misses)
system.cpu.dcache.WriteReq_miss_rate::.cpu.data     0.006825                       # miss rate for WriteReq accesses
system.cpu.dcache.WriteReq_miss_rate::total     0.006825                       # miss rate for WriteReq accesses
system.cpu.dcache.WriteReq_avg_miss_latency::.cpu.data 33861.125956                       # average WriteReq miss latency
system.cpu.dcache.WriteReq_avg_miss_latency::total 33861.125956                       # average WriteReq miss latency
system.cpu.dcache.WriteReq_mshr_misses::.cpu.data        48652                       # number of WriteReq MSHR misses
system.cpu.dcache.WriteReq_mshr_misses::total        48652                       # number of WriteReq MSHR misses
system.cpu.dcache.WriteReq_mshr_miss_latency::.cpu.data   1598759500                       # number of WriteReq MSHR miss cycles
system.cpu.dcache.WriteReq_mshr_miss_latency::total   1598759500                       # number of WriteReq MSHR miss cycles
system.cpu.dcache.WriteReq_mshr_miss_rate::.cpu.data     0.006825                       # mshr miss rate for WriteReq accesses
system.cpu.dcache.WriteReq_mshr_miss_rate::total     0.006825                       # mshr miss rate for WriteReq accesses
system.cpu.dcache.WriteReq_avg_mshr_miss_latency::.cpu.data 32861.125956                       # average WriteReq mshr miss latency
system.cpu.dcache.WriteReq_avg_mshr_miss_latency::total 32861.125956                       # average WriteReq mshr miss latency
system.cpu.dcache.SoftPFReq_hits::.cpu.data        12156                       # number of SoftPFReq hits
system.cpu.dcache.SoftPFReq_hits::total         12156                       # number of SoftPFReq hits
system.cpu.dcache.SoftPFReq_misses::.cpu.data         3198                       # number of SoftPFReq misses
system.cpu.dcache.SoftPFReq_misses::total         3198                       # number of SoftPFReq misses
system.cpu.dcache.SoftPFReq_accesses::.cpu.data        15354                       # number of SoftPFReq accesses(hits+misses)
system.cpu.dcache.SoftPFReq_accesses::total        15354                       # number of SoftPFReq accesses(hits+misses)
system.cpu.dcache.SoftPFReq_miss_rate::.cpu.data     0.208284                       # miss rate for SoftPFReq accesses
system.cpu.dcache.SoftPFReq_miss_rate::total     0.208284                       # miss rate for SoftPFReq accesses
system.cpu.dcache.SoftPFReq_mshr_misses::.cpu.data         3128                       # number of SoftPFReq MSHR misses
system.cpu.dcache.SoftPFReq_mshr_misses::total         3128                       # number of SoftPFReq MSHR misses
system.cpu.dcache.SoftPFReq_mshr_miss_latency::.cpu.data     88059000                       # number of SoftPFReq MSHR miss cycles
system.cpu.dcache.SoftPFReq_mshr_miss_latency::total     88059000                       # number of SoftPFReq MSHR miss cycles
system.cpu.dcache.SoftPFReq_mshr_miss_rate::.cpu.data     0.203725                       # mshr miss rate for SoftPFReq accesses
system.cpu.dcache.SoftPFReq_mshr_miss_rate::total     0.203725                       # mshr miss rate for SoftPFReq accesses
system.cpu.dcache.SoftPFReq_avg_mshr_miss_latency::.cpu.data 28151.854220                       # average SoftPFReq mshr miss latency
system.cpu.dcache.SoftPFReq_avg_mshr_miss_latency::total 28151.854220                       # average SoftPFReq mshr miss latency
system.cpu.dcache.power_state.pwrStateResidencyTicks::UNDEFINED 192985157500                       # Cumulative time (in ticks) in various power states
system.cpu.dcache.tags.tagsinuse          4042.978152                       # Cycle average of tags in use
system.cpu.dcache.tags.total_refs            50987943                       # Total number of references to valid blocks.
system.cpu.dcache.tags.sampled_refs             64574                       # Sample count of references to valid blocks.
system.cpu.dcache.tags.avg_refs            789.604841                       # Average number of references to valid blocks.
system.cpu.dcache.tags.warmup_cycle            177500                       # Cycle when the warmup percentage was hit.
system.cpu.dcache.tags.occ_blocks::.cpu.data  4042.978152                       # Average occupied blocks per requestor
system.cpu.dcache.tags.occ_percent::.cpu.data     0.987055                       # Average percentage of cache occupancy
system.cpu.dcache.tags.occ_percent::total     0.987055                       # Average percentage of cache occupancy
system.cpu.dcache.tags.occ_task_id_blocks::1024         4096                       # Occupied blocks per task id
system.cpu.dcache.tags.age_task_id_blocks_1024::1            1                       # Occupied blocks per task id
system.cpu.dcache.tags.age_task_id_blocks_1024::2           38                       # Occupied blocks per task id
system.cpu.dcache.tags.age_task_id_blocks_1024::3          676                       # Occupied blocks per task id
system.cpu.dcache.tags.age_task_id_blocks_1024::4         3381                       # Occupied blocks per task id
system.cpu.dcache.tags.occ_task_id_percent::1024            1                       # Percentage of cache occupancy per task id
system.cpu.dcache.tags.tag_accesses         102040600                       # Number of tag accesses
system.cpu.dcache.tags.data_accesses        102040600                       # Number of data accesses
system.cpu.dcache.tags.power_state.pwrStateResidencyTicks::UNDEFINED 192985157500                       # Cumulative time (in ticks) in various power states
system.cpu.dtb.rdAccesses                    43859336                       # TLB accesses on read requests
system.cpu.dtb.wrAccesses                     7159465                       # TLB accesses on write requests
system.cpu.dtb.rdMisses                           114                       # TLB misses on read requests
system.cpu.dtb.wrMisses                           271                       # TLB misses on write requests
system.cpu.dtb.walker.power_state.pwrStateResidencyTicks::UNDEFINED 192985157500                       # Cumulative time (in ticks) in various power states
system.cpu.dtb_walker_cache.blocked_cycles::no_mshrs            0                       # number of cycles access was blocked
system.cpu.dtb_walker_cache.blocked_cycles::no_targets            0                       # number of cycles access was blocked
system.cpu.dtb_walker_cache.blocked::no_mshrs            0                       # number of cycles access was blocked
system.cpu.dtb_walker_cache.blocked::no_targets            0                       # number of cycles access was blocked
system.cpu.dtb_walker_cache.avg_blocked_cycles::no_mshrs          nan                       # average number of cycles each access was blocked
system.cpu.dtb_walker_cache.avg_blocked_cycles::no_targets          nan                       # average number of cycles each access was blocked
system.cpu.dtb_walker_cache.replacements            0                       # number of replacements
system.cpu.dtb_walker_cache.power_state.pwrStateResidencyTicks::UNDEFINED 192985157500                       # Cumulative time (in ticks) in various power states
system.cpu.dtb_walker_cache.tags.tagsinuse            0                       # Cycle average of tags in use
system.cpu.dtb_walker_cache.tags.total_refs            0                       # Total number of references to valid blocks.
system.cpu.dtb_walker_cache.tags.sampled_refs            0                       # Sample count of references to valid blocks.
system.cpu.dtb_walker_cache.tags.avg_refs          nan                       # Average number of references to valid blocks.
system.cpu.dtb_walker_cache.tags.warmup_cycle            0                       # Cycle when the warmup percentage was hit.
system.cpu.dtb_walker_cache.tags.tag_accesses            0                       # Number of tag accesses
system.cpu.dtb_walker_cache.tags.data_accesses            0                       # Number of data accesses
system.cpu.dtb_walker_cache.tags.power_state.pwrStateResidencyTicks::UNDEFINED 192985157500                       # Cumulative time (in ticks) in various power states
system.cpu.icache.demand_hits::.cpu.inst    139916580                       # number of demand (read+write) hits
system.cpu.icache.demand_hits::total        139916580                       # number of demand (read+write) hits
system.cpu.icache.overall_hits::.cpu.inst    139916580                       # number of overall hits
system.cpu.icache.overall_hits::total       139916580                       # number of overall hits
system.cpu.icache.demand_misses::.cpu.inst         2480                       # number of demand (read+write) misses
system.cpu.icache.demand_misses::total           2480                       # number of demand (read+write) misses
system.cpu.icache.overall_misses::.cpu.inst         2480                       # number of overall misses
system.cpu.icache.overall_misses::total          2480                       # number of overall misses
system.cpu.icache.demand_miss_latency::.cpu.inst    191159000                       # number of demand (read+write) miss cycles
system.cpu.icache.demand_miss_latency::total    191159000                       # number of demand (read+write) miss cycles
system.cpu.icache.overall_miss_latency::.cpu.inst    191159000                       # number of overall miss cycles
system.cpu.icache.overall_miss_latency::total    191159000                       # number of overall miss cycles
system.cpu.icache.demand_accesses::.cpu.inst    139919060                       # number of demand (read+write) accesses
system.cpu.icache.demand_accesses::total    139919060                       # number of demand (read+write) accesses
system.cpu.icache.overall_accesses::.cpu.inst    139919060                       # number of overall (read+write) accesses
system.cpu.icache.overall_accesses::total    139919060                       # number of overall (read+write) accesses
system.cpu.icache.demand_miss_rate::.cpu.inst     0.000018                       # miss rate for demand accesses
system.cpu.icache.demand_miss_rate::total     0.000018                       # miss rate for demand accesses
system.cpu.icache.overall_miss_rate::.cpu.inst     0.000018                       # miss rate for overall accesses
system.cpu.icache.overall_miss_rate::total     0.000018                       # miss rate for overall accesses
system.cpu.icache.demand_avg_miss_latency::.cpu.inst 77080.241935                       # average overall miss latency
system.cpu.icache.demand_avg_miss_latency::total 77080.241935                       # average overall miss latency
system.cpu.icache.overall_avg_miss_latency::.cpu.inst 77080.241935                       # average overall miss latency
system.cpu.icache.overall_avg_miss_latency::total 77080.241935                       # average overall miss latency
system.cpu.icache.blocked_cycles::no_mshrs            0                       # number of cycles access was blocked
system.cpu.icache.blocked_cycles::no_targets            0                       # number of cycles access was blocked
system.cpu.icache.blocked::no_mshrs                 0                       # number of cycles access was blocked
system.cpu.icache.blocked::no_targets               0                       # number of cycles access was blocked
system.cpu.icache.avg_blocked_cycles::no_mshrs          nan                       # average number of cycles each access was blocked
system.cpu.icache.avg_blocked_cycles::no_targets          nan                       # average number of cycles each access was blocked
system.cpu.icache.writebacks::.writebacks           64                       # number of writebacks
system.cpu.icache.writebacks::total                64                       # number of writebacks
system.cpu.icache.demand_mshr_misses::.cpu.inst         2480                       # number of demand (read+write) MSHR misses
system.cpu.icache.demand_mshr_misses::total         2480                       # number of demand (read+write) MSHR misses
system.cpu.icache.overall_mshr_misses::.cpu.inst         2480                       # number of overall MSHR misses
system.cpu.icache.overall_mshr_misses::total         2480                       # number of overall MSHR misses
system.cpu.icache.demand_mshr_miss_latency::.cpu.inst    188679000                       # number of demand (read+write) MSHR miss cycles
system.cpu.icache.demand_mshr_miss_latency::total    188679000                       # number of demand (read+write) MSHR miss cycles
system.cpu.icache.overall_mshr_miss_latency::.cpu.inst    188679000                       # number of overall MSHR miss cycles
system.cpu.icache.overall_mshr_miss_latency::total    188679000                       # number of overall MSHR miss cycles
system.cpu.icache.demand_mshr_miss_rate::.cpu.inst     0.000018                       # mshr miss rate for demand accesses
system.cpu.icache.demand_mshr_miss_rate::total     0.000018                       # mshr miss rate for demand accesses
system.cpu.icache.overall_mshr_miss_rate::.cpu.inst     0.000018                       # mshr miss rate for overall accesses
system.cpu.icache.overall_mshr_miss_rate::total     0.000018                       # mshr miss rate for overall accesses
system.cpu.icache.demand_avg_mshr_miss_latency::.cpu.inst 76080.241935                       # average overall mshr miss latency
system.cpu.icache.demand_avg_mshr_miss_latency::total 76080.241935                       # average overall mshr miss latency
system.cpu.icache.overall_avg_mshr_miss_latency::.cpu.inst 76080.241935                       # average overall mshr miss latency
system.cpu.icache.overall_avg_mshr_miss_latency::total 76080.241935                       # average overall mshr miss latency
system.cpu.icache.replacements                     64                       # number of replacements
system.cpu.icache.ReadReq_hits::.cpu.inst    139916580                       # number of ReadReq hits
system.cpu.icache.ReadReq_hits::total       139916580                       # number of ReadReq hits
system.cpu.icache.ReadReq_misses::.cpu.inst         2480                       # number of ReadReq misses
system.cpu.icache.ReadReq_misses::total          2480                       # number of ReadReq misses
system.cpu.icache.ReadReq_miss_latency::.cpu.inst    191159000                       # number of ReadReq miss cycles
system.cpu.icache.ReadReq_miss_latency::total    191159000                       # number of ReadReq miss cycles
system.cpu.icache.ReadReq_accesses::.cpu.inst    139919060                       # number of ReadReq accesses(hits+misses)
system.cpu.icache.ReadReq_accesses::total    139919060                       # number of ReadReq accesses(hits+misses)
system.cpu.icache.ReadReq_miss_rate::.cpu.inst     0.000018                       # miss rate for ReadReq accesses
system.cpu.icache.ReadReq_miss_rate::total     0.000018                       # miss rate for ReadReq accesses
system.cpu.icache.ReadReq_avg_miss_latency::.cpu.inst 77080.241935                       # average ReadReq miss latency
system.cpu.icache.ReadReq_avg_miss_latency::total 77080.241935                       # average ReadReq miss latency
system.cpu.icache.ReadReq_mshr_misses::.cpu.inst         2480                       # number of ReadReq MSHR misses
system.cpu.icache.ReadReq_mshr_misses::total         2480                       # number of ReadReq MSHR misses
system.cpu.icache.ReadReq_mshr_miss_latency::.cpu.inst    188679000                       # number of ReadReq MSHR miss cycles
system.cpu.icache.ReadReq_mshr_miss_latency::total    188679000                       # number of ReadReq MSHR miss cycles
system.cpu.icache.ReadReq_mshr_miss_rate::.cpu.inst     0.000018                       # mshr miss rate for ReadReq accesses
system.cpu.icache.ReadReq_mshr_miss_rate::total     0.000018                       # mshr miss rate for ReadReq accesses
system.cpu.icache.ReadReq_avg_mshr_miss_latency::.cpu.inst 76080.241935                       # average ReadReq mshr miss latency
system.cpu.icache.ReadReq_avg_mshr_miss_latency::total 76080.241935                       # average ReadReq mshr miss latency
system.cpu.icache.power_state.pwrStateResidencyTicks::UNDEFINED 192985157500                       # Cumulative time (in ticks) in various power states
system.cpu.icache.tags.tagsinuse          2389.502798                       # Cycle average of tags in use
system.cpu.icache.tags.total_refs           139919060                       # Total number of references to valid blocks.
system.cpu.icache.tags.sampled_refs              2480                       # Sample count of references to valid blocks.
system.cpu.icache.tags.avg_refs          56418.975806                       # Average number of references to valid blocks.
system.cpu.icache.tags.warmup_cycle             87500                       # Cycle when the warmup percentage was hit.
system.cpu.icache.tags.occ_blocks::.cpu.inst  2389.502798                       # Average occupied blocks per requestor
system.cpu.icache.tags.occ_percent::.cpu.inst     0.291687                       # Average percentage of cache occupancy
system.cpu.icache.tags.occ_percent::total     0.291687                       # Average percentage of cache occupancy
system.cpu.icache.tags.occ_task_id_blocks::1024         2416                       # Occupied blocks per task id
system.cpu.icache.tags.age_task_id_blocks_1024::4         2416                       # Occupied blocks per task id
system.cpu.icache.tags.occ_task_id_percent::1024     0.294922                       # Percentage of cache occupancy per task id
system.cpu.icache.tags.tag_accesses         279840600                       # Number of tag accesses
system.cpu.icache.tags.data_accesses        279840600                       # Number of data accesses
system.cpu.icache.tags.power_state.pwrStateResidencyTicks::UNDEFINED 192985157500                       # Cumulative time (in ticks) in various power states
system.cpu.interrupts.clk_domain.clock           8000                       # Clock period in ticks
system.cpu.itb.rdAccesses                           0                       # TLB accesses on read requests
system.cpu.itb.wrAccesses                   139919060                       # TLB accesses on write requests
system.cpu.itb.rdMisses                             0                       # TLB misses on read requests
system.cpu.itb.wrMisses                           106                       # TLB misses on write requests
system.cpu.itb.walker.power_state.pwrStateResidencyTicks::UNDEFINED 192985157500                       # Cumulative time (in ticks) in various power states
system.cpu.itb_walker_cache.blocked_cycles::no_mshrs            0                       # number of cycles access was blocked
system.cpu.itb_walker_cache.blocked_cycles::no_targets            0                       # number of cycles access was blocked
system.cpu.itb_walker_cache.blocked::no_mshrs            0                       # number of cycles access was blocked
system.cpu.itb_walker_cache.blocked::no_targets            0                       # number of cycles access was blocked
system.cpu.itb_walker_cache.avg_blocked_cycles::no_mshrs          nan                       # average number of cycles each access was blocked
system.cpu.itb_walker_cache.avg_blocked_cycles::no_targets          nan                       # average number of cycles each access was blocked
system.cpu.itb_walker_cache.replacements            0                       # number of replacements
system.cpu.itb_walker_cache.power_state.pwrStateResidencyTicks::UNDEFINED 192985157500                       # Cumulative time (in ticks) in various power states
system.cpu.itb_walker_cache.tags.tagsinuse            0                       # Cycle average of tags in use
system.cpu.itb_walker_cache.tags.total_refs            0                       # Total number of references to valid blocks.
system.cpu.itb_walker_cache.tags.sampled_refs            0                       # Sample count of references to valid blocks.
system.cpu.itb_walker_cache.tags.avg_refs          nan                       # Average number of references to valid blocks.
system.cpu.itb_walker_cache.tags.warmup_cycle            0                       # Cycle when the warmup percentage was hit.
system.cpu.itb_walker_cache.tags.tag_accesses            0                       # Number of tag accesses
system.cpu.itb_walker_cache.tags.data_accesses            0                       # Number of data accesses
system.cpu.itb_walker_cache.tags.power_state.pwrStateResidencyTicks::UNDEFINED 192985157500                       # Cumulative time (in ticks) in various power states
system.cpu.power_state.pwrStateResidencyTicks::ON 192985157500                       # Cumulative time (in ticks) in various power states
system.cpu.thread_0.numInsts                        0                       # Number of Instructions committed
system.cpu.thread_0.numOps                          0                       # Number of Ops committed
system.cpu.thread_0.numMemRefs                      0                       # Number of Memory References
system.cpu_clk_domain.clock                       500                       # Clock period in ticks
system.cpu_voltage_domain.voltage                   1                       # Voltage in Volts
system.l2.demand_hits::.cpu.inst                    3                       # number of demand (read+write) hits
system.l2.demand_hits::.cpu.data                44816                       # number of demand (read+write) hits
system.l2.demand_hits::total                    44819                       # number of demand (read+write) hits
system.l2.overall_hits::.cpu.inst                   3                       # number of overall hits
system.l2.overall_hits::.cpu.data               44816                       # number of overall hits
system.l2.overall_hits::total                   44819                       # number of overall hits
system.l2.demand_misses::.cpu.inst               2477                       # number of demand (read+write) misses
system.l2.demand_misses::.cpu.data              19758                       # number of demand (read+write) misses
system.l2.demand_misses::total                  22235                       # number of demand (read+write) misses
system.l2.overall_misses::.cpu.inst              2477                       # number of overall misses
system.l2.overall_misses::.cpu.data             19758                       # number of overall misses
system.l2.overall_misses::total                 22235                       # number of overall misses
system.l2.demand_miss_latency::.cpu.inst    184927500                       # number of demand (read+write) miss cycles
system.l2.demand_miss_latency::.cpu.data   1562078000                       # number of demand (read+write) miss cycles
system.l2.demand_miss_latency::total       1747005500                       # number of demand (read+write) miss cycles
system.l2.overall_miss_latency::.cpu.inst    184927500                       # number of overall miss cycles
system.l2.overall_miss_latency::.cpu.data   1562078000                       # number of overall miss cycles
system.l2.overall_miss_latency::total      1747005500                       # number of overall miss cycles
system.l2.demand_accesses::.cpu.inst             2480                       # number of demand (read+write) accesses
system.l2.demand_accesses::.cpu.data            64574                       # number of demand (read+write) accesses
system.l2.demand_accesses::total                67054                       # number of demand (read+write) accesses
system.l2.overall_accesses::.cpu.inst            2480                       # number of overall (read+write) accesses
system.l2.overall_accesses::.cpu.data           64574                       # number of overall (read+write) accesses
system.l2.overall_accesses::total               67054                       # number of overall (read+write) accesses
system.l2.demand_miss_rate::.cpu.inst        0.998790                       # miss rate for demand accesses
system.l2.demand_miss_rate::.cpu.data        0.305975                       # miss rate for demand accesses
system.l2.demand_miss_rate::total            0.331598                       # miss rate for demand accesses
system.l2.overall_miss_rate::.cpu.inst       0.998790                       # miss rate for overall accesses
system.l2.overall_miss_rate::.cpu.data       0.305975                       # miss rate for overall accesses
system.l2.overall_miss_rate::total           0.331598                       # miss rate for overall accesses
system.l2.demand_avg_miss_latency::.cpu.inst 74657.852241                       # average overall miss latency
system.l2.demand_avg_miss_latency::.cpu.data 79060.532443                       # average overall miss latency
system.l2.demand_avg_miss_latency::total 78570.069710                       # average overall miss latency
system.l2.overall_avg_miss_latency::.cpu.inst 74657.852241                       # average overall miss latency
system.l2.overall_avg_miss_latency::.cpu.data 79060.532443                       # average overall miss latency
system.l2.overall_avg_miss_latency::total 78570.069710                       # average overall miss latency
system.l2.blocked_cycles::no_mshrs                  0                       # number of cycles access was blocked
system.l2.blocked_cycles::no_targets                0                       # number of cycles access was blocked
system.l2.blocked::no_mshrs                         0                       # number of cycles access was blocked
system.l2.blocked::no_targets                       0                       # number of cycles access was blocked
system.l2.avg_blocked_cycles::no_mshrs            nan                       # average number of cycles each access was blocked
system.l2.avg_blocked_cycles::no_targets          nan                       # average number of cycles each access was blocked
system.l2.writebacks::.writebacks               10098                       # number of writebacks
system.l2.writebacks::total                     10098                       # number of writebacks
system.l2.demand_mshr_misses::.cpu.inst          2477                       # number of demand (read+write) MSHR misses
system.l2.demand_mshr_misses::.cpu.data         19758                       # number of demand (read+write) MSHR misses
system.l2.demand_mshr_misses::total             22235                       # number of demand (read+write) MSHR misses
system.l2.overall_mshr_misses::.cpu.inst         2477                       # number of overall MSHR misses
system.l2.overall_mshr_misses::.cpu.data        19758                       # number of overall MSHR misses
system.l2.overall_mshr_misses::total            22235                       # number of overall MSHR misses
system.l2.demand_mshr_miss_latency::.cpu.inst    160157500                       # number of demand (read+write) MSHR miss cycles
system.l2.demand_mshr_miss_latency::.cpu.data   1364498000                       # number of demand (read+write) MSHR miss cycles
system.l2.demand_mshr_miss_latency::total   1524655500                       # number of demand (read+write) MSHR miss cycles
system.l2.overall_mshr_miss_latency::.cpu.inst    160157500                       # number of overall MSHR miss cycles
system.l2.overall_mshr_miss_latency::.cpu.data   1364498000                       # number of overall MSHR miss cycles
system.l2.overall_mshr_miss_latency::total   1524655500                       # number of overall MSHR miss cycles
system.l2.demand_mshr_miss_rate::.cpu.inst     0.998790                       # mshr miss rate for demand accesses
system.l2.demand_mshr_miss_rate::.cpu.data     0.305975                       # mshr miss rate for demand accesses
system.l2.demand_mshr_miss_rate::total       0.331598                       # mshr miss rate for demand accesses
system.l2.overall_mshr_miss_rate::.cpu.inst     0.998790                       # mshr miss rate for overall accesses
system.l2.overall_mshr_miss_rate::.cpu.data     0.305975                       # mshr miss rate for overall accesses
system.l2.overall_mshr_miss_rate::total      0.331598                       # mshr miss rate for overall accesses
system.l2.demand_avg_mshr_miss_latency::.cpu.inst 64657.852241                       # average overall mshr miss latency
system.l2.demand_avg_mshr_miss_latency::.cpu.data 69060.532443                       # average overall mshr miss latency
system.l2.demand_avg_mshr_miss_latency::total 68570.069710                       # average overall mshr miss latency
system.l2.overall_avg_mshr_miss_latency::.cpu.inst 64657.852241                       # average overall mshr miss latency
system.l2.overall_avg_mshr_miss_latency::.cpu.data 69060.532443                       # average overall mshr miss latency
system.l2.overall_avg_mshr_miss_latency::total 68570.069710                       # average overall mshr miss latency
system.l2.replacements                          66430                       # number of replacements
system.l2.WritebackDirty_hits::.writebacks        56395                       # number of WritebackDirty hits
system.l2.WritebackDirty_hits::total            56395                       # number of WritebackDirty hits
system.l2.WritebackDirty_accesses::.writebacks        56395                       # number of WritebackDirty accesses(hits+misses)
system.l2.WritebackDirty_accesses::total        56395                       # number of WritebackDirty accesses(hits+misses)
system.l2.WritebackClean_hits::.writebacks           64                       # number of WritebackClean hits
system.l2.WritebackClean_hits::total               64                       # number of WritebackClean hits
system.l2.WritebackClean_accesses::.writebacks           64                       # number of WritebackClean accesses(hits+misses)
system.l2.WritebackClean_accesses::total           64                       # number of WritebackClean accesses(hits+misses)
system.l2.CleanEvict_mshr_misses::.writebacks         3753                       # number of CleanEvict MSHR misses
system.l2.CleanEvict_mshr_misses::total          3753                       # number of CleanEvict MSHR misses
system.l2.CleanEvict_mshr_miss_rate::.writebacks          inf                       # mshr miss rate for CleanEvict accesses
system.l2.CleanEvict_mshr_miss_rate::total          inf                       # mshr miss rate for CleanEvict accesses
system.l2.ReadExReq_hits::.cpu.data             33710                       # number of ReadExReq hits
system.l2.ReadExReq_hits::total                 33710                       # number of ReadExReq hits
system.l2.ReadExReq_misses::.cpu.data           14942                       # number of ReadExReq misses
system.l2.ReadExReq_misses::total               14942                       # number of ReadExReq misses
system.l2.ReadExReq_miss_latency::.cpu.data   1171826500                       # number of ReadExReq miss cycles
system.l2.ReadExReq_miss_latency::total    1171826500                       # number of ReadExReq miss cycles
system.l2.ReadExReq_accesses::.cpu.data         48652                       # number of ReadExReq accesses(hits+misses)
system.l2.ReadExReq_accesses::total             48652                       # number of ReadExReq accesses(hits+misses)
system.l2.ReadExReq_miss_rate::.cpu.data     0.307120                       # miss rate for ReadExReq accesses
system.l2.ReadExReq_miss_rate::total         0.307120                       # miss rate for ReadExReq accesses
system.l2.ReadExReq_avg_miss_latency::.cpu.data 78425.010039                       # average ReadExReq miss latency
system.l2.ReadExReq_avg_miss_latency::total 78425.010039                       # average ReadExReq miss latency
system.l2.ReadExReq_mshr_misses::.cpu.data        14942                       # number of ReadExReq MSHR misses
system.l2.ReadExReq_mshr_misses::total          14942                       # number of ReadExReq MSHR misses
system.l2.ReadExReq_mshr_miss_latency::.cpu.data   1022406500                       # number of ReadExReq MSHR miss cycles
system.l2.ReadExReq_mshr_miss_latency::total   1022406500                       # number of ReadExReq MSHR miss cycles
system.l2.ReadExReq_mshr_miss_rate::.cpu.data     0.307120                       # mshr miss rate for ReadExReq accesses
system.l2.ReadExReq_mshr_miss_rate::total     0.307120                       # mshr miss rate for ReadExReq accesses
system.l2.ReadExReq_avg_mshr_miss_latency::.cpu.data 68425.010039                       # average ReadExReq mshr miss latency
system.l2.ReadExReq_avg_mshr_miss_latency::total 68425.010039                       # average ReadExReq mshr miss latency
system.l2.ReadCleanReq_hits::.cpu.inst              3                       # number of ReadCleanReq hits
system.l2.ReadCleanReq_hits::total                  3                       # number of ReadCleanReq hits
system.l2.ReadCleanReq_misses::.cpu.inst         2477                       # number of ReadCleanReq misses
system.l2.ReadCleanReq_misses::total             2477                       # number of ReadCleanReq misses
system.l2.ReadCleanReq_miss_latency::.cpu.inst    184927500                       # number of ReadCleanReq miss cycles
system.l2.ReadCleanReq_miss_latency::total    184927500                       # number of ReadCleanReq miss cycles
system.l2.ReadCleanReq_accesses::.cpu.inst         2480                       # number of ReadCleanReq accesses(hits+misses)
system.l2.ReadCleanReq_accesses::total           2480                       # number of ReadCleanReq accesses(hits+misses)
system.l2.ReadCleanReq_miss_rate::.cpu.inst     0.998790                       # miss rate for ReadCleanReq accesses
system.l2.ReadCleanReq_miss_rate::total      0.998790                       # miss rate for ReadCleanReq accesses
system.l2.ReadCleanReq_avg_miss_latency::.cpu.inst 74657.852241                       # average ReadCleanReq miss latency
system.l2.ReadCleanReq_avg_miss_latency::total 74657.852241                       # average ReadCleanReq miss latency
system.l2.ReadCleanReq_mshr_misses::.cpu.inst         2477                       # number of ReadCleanReq MSHR misses
system.l2.ReadCleanReq_mshr_misses::total         2477                       # number of ReadCleanReq MSHR misses
system.l2.ReadCleanReq_mshr_miss_latency::.cpu.inst    160157500                       # number of ReadCleanReq MSHR miss cycles
system.l2.ReadCleanReq_mshr_miss_latency::total    160157500                       # number of ReadCleanReq MSHR miss cycles
system.l2.ReadCleanReq_mshr_miss_rate::.cpu.inst     0.998790                       # mshr miss rate for ReadCleanReq accesses
system.l2.ReadCleanReq_mshr_miss_rate::total     0.998790                       # mshr miss rate for ReadCleanReq accesses
system.l2.ReadCleanReq_avg_mshr_miss_latency::.cpu.inst 64657.852241                       # average ReadCleanReq mshr miss latency
system.l2.ReadCleanReq_avg_mshr_miss_latency::total 64657.852241                       # average ReadCleanReq mshr miss latency
system.l2.ReadSharedReq_hits::.cpu.data         11106                       # number of ReadSharedReq hits
system.l2.ReadSharedReq_hits::total             11106                       # number of ReadSharedReq hits
system.l2.ReadSharedReq_misses::.cpu.data         4816                       # number of ReadSharedReq misses
system.l2.ReadSharedReq_misses::total            4816                       # number of ReadSharedReq misses
system.l2.ReadSharedReq_miss_latency::.cpu.data    390251500                       # number of ReadSharedReq miss cycles
system.l2.ReadSharedReq_miss_latency::total    390251500                       # number of ReadSharedReq miss cycles
system.l2.ReadSharedReq_accesses::.cpu.data        15922                       # number of ReadSharedReq accesses(hits+misses)
system.l2.ReadSharedReq_accesses::total         15922                       # number of ReadSharedReq accesses(hits+misses)
system.l2.ReadSharedReq_miss_rate::.cpu.data     0.302475                       # miss rate for ReadSharedReq accesses
system.l2.ReadSharedReq_miss_rate::total     0.302475                       # miss rate for ReadSharedReq accesses
system.l2.ReadSharedReq_avg_miss_latency::.cpu.data 81032.288206                       # average ReadSharedReq miss latency
system.l2.ReadSharedReq_avg_miss_latency::total 81032.288206                       # average ReadSharedReq miss latency
system.l2.ReadSharedReq_mshr_misses::.cpu.data         4816                       # number of ReadSharedReq MSHR misses
system.l2.ReadSharedReq_mshr_misses::total         4816                       # number of ReadSharedReq MSHR misses
system.l2.ReadSharedReq_mshr_miss_latency::.cpu.data    342091500                       # number of ReadSharedReq MSHR miss cycles
system.l2.ReadSharedReq_mshr_miss_latency::total    342091500                       # number of ReadSharedReq MSHR miss cycles
system.l2.ReadSharedReq_mshr_miss_rate::.cpu.data     0.302475                       # mshr miss rate for ReadSharedReq accesses
system.l2.ReadSharedReq_mshr_miss_rate::total     0.302475                       # mshr miss rate for ReadSharedReq accesses
system.l2.ReadSharedReq_avg_mshr_miss_latency::.cpu.data 71032.288206                       # average ReadSharedReq mshr miss latency
system.l2.ReadSharedReq_avg_mshr_miss_latency::total 71032.288206                       # average ReadSharedReq mshr miss latency
system.l2.power_state.pwrStateResidencyTicks::UNDEFINED 192985157500                       # Cumulative time (in ticks) in various power states
system.l2.tags.tagsinuse                  4074.224940                       # Cycle average of tags in use
system.l2.tags.total_refs                      123843                       # Total number of references to valid blocks.
system.l2.tags.sampled_refs                     70526                       # Sample count of references to valid blocks.
system.l2.tags.avg_refs                      1.755991                       # Average number of references to valid blocks.
system.l2.tags.warmup_cycle                     77000                       # Cycle when the warmup percentage was hit.
system.l2.tags.occ_blocks::.writebacks    2905.794450                       # Average occupied blocks per requestor
system.l2.tags.occ_blocks::.cpu.inst        52.878364                       # Average occupied blocks per requestor
system.l2.tags.occ_blocks::.cpu.data      1115.552125                       # Average occupied blocks per requestor
system.l2.tags.occ_percent::.writebacks      0.709422                       # Average percentage of cache occupancy
system.l2.tags.occ_percent::.cpu.inst        0.012910                       # Average percentage of cache occupancy
system.l2.tags.occ_percent::.cpu.data        0.272352                       # Average percentage of cache occupancy
system.l2.tags.occ_percent::total            0.994684                       # Average percentage of cache occupancy
system.l2.tags.occ_task_id_blocks::1024          4096                       # Occupied blocks per task id
system.l2.tags.age_task_id_blocks_1024::2            9                       # Occupied blocks per task id
system.l2.tags.age_task_id_blocks_1024::3          704                       # Occupied blocks per task id
system.l2.tags.age_task_id_blocks_1024::4         3383                       # Occupied blocks per task id
system.l2.tags.occ_task_id_percent::1024            1                       # Percentage of cache occupancy per task id
system.l2.tags.tag_accesses                    325718                       # Number of tag accesses
system.l2.tags.data_accesses                   325718                       # Number of data accesses
system.l2.tags.power_state.pwrStateResidencyTicks::UNDEFINED 192985157500                       # Cumulative time (in ticks) in various power states
system.mem_ctrls.avgPriority_.writebacks::samples      5718.00                       # Average QoS priority value for accepted requests
system.mem_ctrls.avgPriority_.cpu.inst::samples      2477.00                       # Average QoS priority value for accepted requests
system.mem_ctrls.avgPriority_.cpu.data::samples     19178.00                       # Average QoS priority value for accepted requests
system.mem_ctrls.priorityMinLatency      0.000000018750                       # per QoS priority minimum request to response latency (s)
system.mem_ctrls.priorityMaxLatency      0.043407696500                       # per QoS priority maximum request to response latency (s)
system.mem_ctrls.numReadWriteTurnArounds          325                       # Number of turnarounds from READ to WRITE
system.mem_ctrls.numWriteReadTurnArounds          325                       # Number of turnarounds from WRITE to READ
system.mem_ctrls.numStayReadState              102745                       # Number of times bus staying in READ state
system.mem_ctrls.numStayWriteState               5375                       # Number of times bus staying in WRITE state
system.mem_ctrls.readReqs                       22235                       # Number of read requests accepted
system.mem_ctrls.writeReqs                      10098                       # Number of write requests accepted
system.mem_ctrls.readBursts                     22235                       # Number of controller read bursts, including those serviced by the write queue
system.mem_ctrls.writeBursts                    10098                       # Number of controller write bursts, including those merged in the write queue
system.mem_ctrls.servicedByWrQ                    580                       # Number of controller read bursts serviced by the write queue
system.mem_ctrls.mergedWrBursts                  4380                       # Number of controller write bursts merged with an existing one
system.mem_ctrls.neitherReadNorWriteReqs            0                       # Number of requests that are neither read nor write
system.mem_ctrls.avgRdQLen                       1.00                       # Average read queue length when enqueuing
system.mem_ctrls.avgWrQLen                      24.22                       # Average write queue length when enqueuing
system.mem_ctrls.numRdRetry                         0                       # Number of times read queue was full causing retry
system.mem_ctrls.numWrRetry                         0                       # Number of times write queue was full causing retry
system.mem_ctrls.readPktSize::0                     0                       # Read request sizes (log2)
system.mem_ctrls.readPktSize::1                     0                       # Read request sizes (log2)
system.mem_ctrls.readPktSize::2                     0                       # Read request sizes (log2)
system.mem_ctrls.readPktSize::3                     0                       # Read request sizes (log2)
system.mem_ctrls.readPktSize::4                     0                       # Read request sizes (log2)
system.mem_ctrls.readPktSize::5                 22235                       # Read request sizes (log2)
system.mem_ctrls.writePktSize::0                    0                       # Write request sizes (log2)
system.mem_ctrls.writePktSize::1                    0                       # Write request sizes (log2)
system.mem_ctrls.writePktSize::2                    0                       # Write request sizes (log2)
system.mem_ctrls.writePktSize::3                    0                       # Write request sizes (log2)
system.mem_ctrls.writePktSize::4                    0                       # Write request sizes (log2)
system.mem_ctrls.writePktSize::5                10098                       # Write request sizes (log2)
system.mem_ctrls.rdQLenPdf::0                   21011                       # What read queue length does an incoming req see
system.mem_ctrls.rdQLenPdf::1                     637                       # What read queue length does an incoming req see
system.mem_ctrls.rdQLenPdf::2                       6                       # What read queue length does an incoming req see
system.mem_ctrls.rdQLenPdf::3                       1                       # What read queue length does an incoming req see
system.mem_ctrls.rdQLenPdf::4                       0                       # What read queue length does an incoming req see
system.mem_ctrls.rdQLenPdf::5                       0                       # What read queue length does an incoming req see
system.mem_ctrls.rdQLenPdf::6                       0                       # What read queue length does an incoming req see
system.mem_ctrls.rdQLenPdf::7                       0                       # What read queue length does an incoming req see
system.mem_ctrls.rdQLenPdf::8                       0                       # What read queue length does an incoming req see
system.mem_ctrls.rdQLenPdf::9                       0                       # What read queue length does an incoming req see
system.mem_ctrls.rdQLenPdf::10                      0                       # What read queue length does an incoming req see
system.mem_ctrls.rdQLenPdf::11                      0                       # What read queue length does an incoming req see
system.mem_ctrls.rdQLenPdf::12                      0                       # What read queue length does an incoming req see
system.mem_ctrls.rdQLenPdf::13                      0                       # What read queue length does an incoming req see
system.mem_ctrls.rdQLenPdf::14                      0                       # What read queue length does an incoming req see
system.mem_ctrls.rdQLenPdf::15                      0                       # What read queue length does an incoming req see
system.mem_ctrls.rdQLenPdf::16                      0                       # What read queue length does an incoming req see
system.mem_ctrls.rdQLenPdf::17                      0                       # What read queue length does an incoming req see
system.mem_ctrls.rdQLenPdf::18                      0                       # What read queue length does an incoming req see
system.mem_ctrls.rdQLenPdf::19                      0                       # What read queue length does an incoming req see
system.mem_ctrls.rdQLenPdf::20                      0                       # What read queue length does an incoming req see
system.mem_ctrls.rdQLenPdf::21                      0                       # What read queue length does an incoming req see
system.mem_ctrls.rdQLenPdf::22                      0                       # What read queue length does an incoming req see
system.mem_ctrls.rdQLenPdf::23                      0                       # What read queue length does an incoming req see
system.mem_ctrls.rdQLenPdf::24                      0                       # What read queue length does an incoming req see
system.mem_ctrls.rdQLenPdf::25                      0                       # What read queue length does an incoming req see
system.mem_ctrls.rdQLenPdf::26                      0                       # What read queue length does an incoming req see
system.mem_ctrls.rdQLenPdf::27                      0                       # What read queue length does an incoming req see
system.mem_ctrls.rdQLenPdf::28                      0                       # What read queue length does an incoming req see
system.mem_ctrls.rdQLenPdf::29                      0                       # What read queue length does an incoming req see
system.mem_ctrls.rdQLenPdf::30                      0                       # What read queue length does an incoming req see
system.mem_ctrls.rdQLenPdf::31                      0                       # What read queue length does an incoming req see
system.mem_ctrls.wrQLenPdf::0                       1                       # What write queue length does an incoming req see
system.mem_ctrls.wrQLenPdf::1                       1                       # What write queue length does an incoming req see
system.mem_ctrls.wrQLenPdf::2                       1                       # What write queue length does an incoming req see
system.mem_ctrls.wrQLenPdf::3                       1                       # What write queue length does an incoming req see
system.mem_ctrls.wrQLenPdf::4                       1                       # What write queue length does an incoming req see
system.mem_ctrls.wrQLenPdf::5                       1                       # What write queue length does an incoming req see
system.mem_ctrls.wrQLenPdf::6                       1                       # What write queue length does an incoming req see
system.mem_ctrls.wrQLenPdf::7                       1                       # What write queue length does an incoming req see
system.mem_ctrls.wrQLenPdf::8                       1                       # What write queue length does an incoming req see
system.mem_ctrls.wrQLenPdf::9                       1                       # What write queue length does an incoming req see
system.mem_ctrls.wrQLenPdf::10                      1                       # What write queue length does an incoming req see
system.mem_ctrls.wrQLenPdf::11                      1                       # What write queue length does an incoming req see
system.mem_ctrls.wrQLenPdf::12                      1                       # What write queue length does an incoming req see
system.mem_ctrls.wrQLenPdf::13                      1                       # What write queue length does an incoming req see
system.mem_ctrls.wrQLenPdf::14                      1                       # What write queue length does an incoming req see
system.mem_ctrls.wrQLenPdf::15                    241                       # What write queue length does an incoming req see
system.mem_ctrls.wrQLenPdf::16                    245                       # What write queue length does an incoming req see
system.mem_ctrls.wrQLenPdf::17                    324                       # What write queue length does an incoming req see
system.mem_ctrls.wrQLenPdf::18                    326                       # What write queue length does an incoming req see
system.mem_ctrls.wrQLenPdf::19                    327                       # What write queue length does an incoming req see
system.mem_ctrls.wrQLenPdf::20                    326                       # What write queue length does an incoming req see
system.mem_ctrls.wrQLenPdf::21                    327                       # What write queue length does an incoming req see
system.mem_ctrls.wrQLenPdf::22                    326                       # What write queue length does an incoming req see
system.mem_ctrls.wrQLenPdf::23                    327                       # What write queue length does an incoming req see
system.mem_ctrls.wrQLenPdf::24                    326                       # What write queue length does an incoming req see
system.mem_ctrls.wrQLenPdf::25                    326                       # What write queue length does an incoming req see
system.mem_ctrls.wrQLenPdf::26                    327                       # What write queue length does an incoming req see
system.mem_ctrls.wrQLenPdf::27                    326                       # What write queue length does an incoming req see
system.mem_ctrls.wrQLenPdf::28                    326                       # What write queue length does an incoming req see
system.mem_ctrls.wrQLenPdf::29                    327                       # What write queue length does an incoming req see
system.mem_ctrls.wrQLenPdf::30                    326                       # What write queue length does an incoming req see
system.mem_ctrls.wrQLenPdf::31                    325                       # What write queue length does an incoming req see
system.mem_ctrls.wrQLenPdf::32                    325                       # What write queue length does an incoming req see
system.mem_ctrls.wrQLenPdf::33                      0                       # What write queue length does an incoming req see
system.mem_ctrls.wrQLenPdf::34                      0                       # What write queue length does an incoming req see
system.mem_ctrls.wrQLenPdf::35                      0                       # What write queue length does an incoming req see
system.mem_ctrls.wrQLenPdf::36                      0                       # What write queue length does an incoming req see
system.mem_ctrls.wrQLenPdf::37                      0                       # What write queue length does an incoming req see
system.mem_ctrls.wrQLenPdf::38                      0                       # What write queue length does an incoming req see
system.mem_ctrls.wrQLenPdf::39                      0                       # What write queue length does an incoming req see
system.mem_ctrls.wrQLenPdf::40                      0                       # What write queue length does an incoming req see
system.mem_ctrls.wrQLenPdf::41                      0                       # What write queue length does an incoming req see
system.mem_ctrls.wrQLenPdf::42                      0                       # What write queue length does an incoming req see
system.mem_ctrls.wrQLenPdf::43                      0                       # What write queue length does an incoming req see
system.mem_ctrls.wrQLenPdf::44                      0                       # What write queue length does an incoming req see
system.mem_ctrls.wrQLenPdf::45                      0                       # What write queue length does an incoming req see
system.mem_ctrls.wrQLenPdf::46                      0                       # What write queue length does an incoming req see
system.mem_ctrls.wrQLenPdf::47                      0                       # What write queue length does an incoming req see
system.mem_ctrls.wrQLenPdf::48                      0                       # What write queue length does an incoming req see
system.mem_ctrls.wrQLenPdf::49                      0                       # What write queue length does an incoming req see
system.mem_ctrls.wrQLenPdf::50                      0                       # What write queue length does an incoming req see
system.mem_ctrls.wrQLenPdf::51                      0                       # What write queue length does an incoming req see
system.mem_ctrls.wrQLenPdf::52                      0                       # What write queue length does an incoming req see
system.mem_ctrls.wrQLenPdf::53                      0                       # What write queue length does an incoming req see
system.mem_ctrls.wrQLenPdf::54                      0                       # What write queue length does an incoming req see
system.mem_ctrls.wrQLenPdf::55                      0                       # What write queue length does an incoming req see
system.mem_ctrls.wrQLenPdf::56                      0                       # What write queue length does an incoming req see
system.mem_ctrls.wrQLenPdf::57                      0                       # What write queue length does an incoming req see
system.mem_ctrls.wrQLenPdf::58                      0                       # What write queue length does an incoming req see
system.mem_ctrls.wrQLenPdf::59                      0                       # What write queue length does an incoming req see
system.mem_ctrls.wrQLenPdf::60                      0                       # What write queue length does an incoming req see
system.mem_ctrls.wrQLenPdf::61                      0                       # What write queue length does an incoming req see
system.mem_ctrls.wrQLenPdf::62                      0                       # What write queue length does an incoming req see
system.mem_ctrls.wrQLenPdf::63                      0                       # What write queue length does an incoming req see
system.mem_ctrls.rdPerTurnAround::samples          325                       # Reads before turning the bus around for writes
system.mem_ctrls.rdPerTurnAround::mean      66.476923                       # Reads before turning the bus around for writes
system.mem_ctrls.rdPerTurnAround::gmean     38.230663                       # Reads before turning the bus around for writes
system.mem_ctrls.rdPerTurnAround::stdev    453.017459                       # Reads before turning the bus around for writes
system.mem_ctrls.rdPerTurnAround::0-255           323     99.38%     99.38% # Reads before turning the bus around for writes
system.mem_ctrls.rdPerTurnAround::256-511            1      0.31%     99.69% # Reads before turning the bus around for writes
system.mem_ctrls.rdPerTurnAround::7936-8191            1      0.31%    100.00% # Reads before turning the bus around for writes
system.mem_ctrls.rdPerTurnAround::total           325                       # Reads before turning the bus around for writes
system.mem_ctrls.wrPerTurnAround::samples          325                       # Writes before turning the bus around for reads
system.mem_ctrls.wrPerTurnAround::mean      17.498462                       # Writes before turning the bus around for reads
system.mem_ctrls.wrPerTurnAround::gmean     17.475695                       # Writes before turning the bus around for reads
system.mem_ctrls.wrPerTurnAround::stdev      0.877091                       # Writes before turning the bus around for reads
system.mem_ctrls.wrPerTurnAround::16               82     25.23%     25.23% # Writes before turning the bus around for reads
system.mem_ctrls.wrPerTurnAround::17                1      0.31%     25.54% # Writes before turning the bus around for reads
system.mem_ctrls.wrPerTurnAround::18              240     73.85%     99.38% # Writes before turning the bus around for reads
system.mem_ctrls.wrPerTurnAround::19                2      0.62%    100.00% # Writes before turning the bus around for reads
[...]
system.mem_ctrls.dram.bw_total::.cpu.data      3276190                       # Total bandwidth to/from this memory (bytes/s)
system.mem_ctrls.dram.bw_total::total         5361324                       # Total bandwidth to/from this memory (bytes/s)
system.mem_ctrls.dram.readBursts                21655                       # Number of DRAM read bursts
system.mem_ctrls.dram.writeBursts                5687                       # Number of DRAM write bursts
system.mem_ctrls.dram.perBankRdBursts::0         1621                       # Per bank write bursts
system.mem_ctrls.dram.perBankRdBursts::1         1826                       # Per bank write bursts
system.mem_ctrls.dram.perBankRdBursts::2         1432                       # Per bank write bursts
system.mem_ctrls.dram.perBankRdBursts::3         2250                       # Per bank write bursts
system.mem_ctrls.dram.perBankRdBursts::4         1251                       # Per bank write bursts
system.mem_ctrls.dram.perBankRdBursts::5         1009                       # Per bank write bursts
system.mem_ctrls.dram.perBankRdBursts::6         1145                       # Per bank write bursts
system.mem_ctrls.dram.perBankRdBursts::7         1322                       # Per bank write bursts
system.mem_ctrls.dram.perBankRdBursts::8         1496                       # Per bank write bursts
system.mem_ctrls.dram.perBankRdBursts::9         1187                       # Per bank write bursts
system.mem_ctrls.dram.perBankRdBursts::10         1009                       # Per bank write bursts
system.mem_ctrls.dram.perBankRdBursts::11         1318                       # Per bank write bursts
system.mem_ctrls.dram.perBankRdBursts::12         1000                       # Per bank write bursts
system.mem_ctrls.dram.perBankRdBursts::13         1056                       # Per bank write bursts
system.mem_ctrls.dram.perBankRdBursts::14         1104                       # Per bank write bursts
system.mem_ctrls.dram.perBankRdBursts::15         1629                       # Per bank write bursts
system.mem_ctrls.dram.perBankWrBursts::0          442                       # Per bank write bursts
system.mem_ctrls.dram.perBankWrBursts::1          400                       # Per bank write bursts
system.mem_ctrls.dram.perBankWrBursts::2          347                       # Per bank write bursts
system.mem_ctrls.dram.perBankWrBursts::3          507                       # Per bank write bursts
system.mem_ctrls.dram.perBankWrBursts::4          235                       # Per bank write bursts
system.mem_ctrls.dram.perBankWrBursts::5          292                       # Per bank write bursts
system.mem_ctrls.dram.perBankWrBursts::6          379                       # Per bank write bursts
system.mem_ctrls.dram.perBankWrBursts::7          496                       # Per bank write bursts
system.mem_ctrls.dram.perBankWrBursts::8          475                       # Per bank write bursts
system.mem_ctrls.dram.perBankWrBursts::9          337                       # Per bank write bursts
system.mem_ctrls.dram.perBankWrBursts::10          304                       # Per bank write bursts
system.mem_ctrls.dram.perBankWrBursts::11          391                       # Per bank write bursts
system.mem_ctrls.dram.perBankWrBursts::12          276                       # Per bank write bursts
system.mem_ctrls.dram.perBankWrBursts::13          261                       # Per bank write bursts
system.mem_ctrls.dram.perBankWrBursts::14          175                       # Per bank write bursts
system.mem_ctrls.dram.perBankWrBursts::15          370                       # Per bank write bursts
system.mem_ctrls.dram.totQLat               216305500                       # Total ticks spent queuing
system.mem_ctrls.dram.totBusLat             108275000                       # Total ticks spent in databus transfers
system.mem_ctrls.dram.totMemAccLat          622336750                       # Total ticks spent from burst creation until serviced by the DRAM
system.mem_ctrls.dram.avgQLat                 9988.71                       # Average queueing delay per DRAM burst
system.mem_ctrls.dram.avgBusLat               5000.00                       # Average bus latency per DRAM burst
system.mem_ctrls.dram.avgMemAccLat           28738.71                       # Average memory access latency per DRAM burst
system.mem_ctrls.dram.readRowHits               14312                       # Number of row buffer hits during reads
system.mem_ctrls.dram.writeRowHits               4733                       # Number of row buffer hits during writes
system.mem_ctrls.dram.readRowHitRate            66.09                       # Row buffer hit rate for reads
system.mem_ctrls.dram.writeRowHitRate           83.22                       # Row buffer hit rate for writes
system.mem_ctrls.dram.bytesPerActivate::samples         8297                       # Bytes accessed per row activation
system.mem_ctrls.dram.bytesPerActivate::mean   210.906111                       # Bytes accessed per row activation
system.mem_ctrls.dram.bytesPerActivate::gmean   132.586080                       # Bytes accessed per row activation
system.mem_ctrls.dram.bytesPerActivate::stdev   264.341399                       # Bytes accessed per row activation
system.mem_ctrls.dram.bytesPerActivate::0-127         3557     42.87%     42.87% # Bytes accessed per row activation
system.mem_ctrls.dram.bytesPerActivate::128-255         2909     35.06%     77.93% # Bytes accessed per row activation
system.mem_ctrls.dram.bytesPerActivate::256-383          653      7.87%     85.80% # Bytes accessed per row activation
system.mem_ctrls.dram.bytesPerActivate::384-511          193      2.33%     88.13% # Bytes accessed per row activation
system.mem_ctrls.dram.bytesPerActivate::512-639          141      1.70%     89.83% # Bytes accessed per row activation
system.mem_ctrls.dram.bytesPerActivate::640-767          131      1.58%     91.41% # Bytes accessed per row activation
system.mem_ctrls.dram.bytesPerActivate::768-895           83      1.00%     92.41% # Bytes accessed per row activation
system.mem_ctrls.dram.bytesPerActivate::896-1023           85      1.02%     93.43% # Bytes accessed per row activation
system.mem_ctrls.dram.bytesPerActivate::1024-1151          545      6.57%    100.00% # Bytes accessed per row activation
system.mem_ctrls.dram.bytesPerActivate::total         8297                       # Bytes accessed per row activation
system.mem_ctrls.dram.bytesRead               1385920                       # Total number of bytes read from DRAM
system.mem_ctrls.dram.bytesWritten             363968                       # Total number of bytes written to DRAM
system.mem_ctrls.dram.avgRdBW                7.181485                       # Average DRAM read bandwidth in MiBytes/s
system.mem_ctrls.dram.avgWrBW                1.885990                       # Average DRAM write bandwidth in MiBytes/s
system.mem_ctrls.dram.peakBW                 12800.00                       # Theoretical peak bandwidth in MiByte/s
system.mem_ctrls.dram.busUtil                    0.07                       # Data bus utilization in percentage
system.mem_ctrls.dram.busUtilRead                0.06                       # Data bus utilization in percentage for reads
system.mem_ctrls.dram.busUtilWrite               0.01                       # Data bus utilization in percentage for writes
system.mem_ctrls.dram.pageHitRate               69.65                       # Row buffer hit rate, read and write combined
system.mem_ctrls.dram.power_state.pwrStateResidencyTicks::UNDEFINED 192985157500                       # Cumulative time (in ticks) in various power states
system.mem_ctrls.dram.rank0.actEnergy        32622660                       # Energy for activate commands per rank (pJ)
system.mem_ctrls.dram.rank0.preEnergy        17339355                       # Energy for precharge commands per rank (pJ)
system.mem_ctrls.dram.rank0.readEnergy       84651840                       # Energy for read commands per rank (pJ)
system.mem_ctrls.dram.rank0.writeEnergy      16171560                       # Energy for write commands per rank (pJ)
system.mem_ctrls.dram.rank0.refreshEnergy 15233852400.000002                       # Energy for refresh commands per rank (pJ)
system.mem_ctrls.dram.rank0.actBackEnergy   9326938500                       # Energy for active background per rank (pJ)
system.mem_ctrls.dram.rank0.preBackEnergy  66252036480                       # Energy for precharge background per rank (pJ)
system.mem_ctrls.dram.rank0.actPowerDownEnergy            0                       # Energy for active power-down per rank (pJ)
system.mem_ctrls.dram.rank0.prePowerDownEnergy            0                       # Energy for precharge power-down per rank (pJ)
system.mem_ctrls.dram.rank0.selfRefreshEnergy            0                       # Energy for self refresh per rank (pJ)
system.mem_ctrls.dram.rank0.totalEnergy   90963612795                       # Total energy per rank (pJ)
system.mem_ctrls.dram.rank0.averagePower   471.350305                       # Core power per rank (mW)
system.mem_ctrls.dram.rank0.totalIdleTime            0                       # Total Idle time Per DRAM Rank
system.mem_ctrls.dram.rank0.pwrStateTime::IDLE 172145573250                       # Time in different power states
system.mem_ctrls.dram.rank0.pwrStateTime::REF   6444100000                       # Time in different power states
system.mem_ctrls.dram.rank0.pwrStateTime::SREF            0                       # Time in different power states
system.mem_ctrls.dram.rank0.pwrStateTime::PRE_PDN            0                       # Time in different power states
system.mem_ctrls.dram.rank0.pwrStateTime::ACT  14395484250                       # Time in different power states
system.mem_ctrls.dram.rank0.pwrStateTime::ACT_PDN            0                       # Time in different power states
system.mem_ctrls.dram.rank1.actEnergy        26617920                       # Energy for activate commands per rank (pJ)
system.mem_ctrls.dram.rank1.preEnergy        14147760                       # Energy for precharge commands per rank (pJ)
system.mem_ctrls.dram.rank1.readEnergy       69964860                       # Energy for read commands per rank (pJ)
system.mem_ctrls.dram.rank1.writeEnergy      13514580                       # Energy for write commands per rank (pJ)
system.mem_ctrls.dram.rank1.refreshEnergy 15233852400.000002                       # Energy for refresh commands per rank (pJ)
system.mem_ctrls.dram.rank1.actBackEnergy   7903712910                       # Energy for active background per rank (pJ)
system.mem_ctrls.dram.rank1.preBackEnergy  67450542240                       # Energy for precharge background per rank (pJ)
system.mem_ctrls.dram.rank1.actPowerDownEnergy            0                       # Energy for active power-down per rank (pJ)
system.mem_ctrls.dram.rank1.prePowerDownEnergy            0                       # Energy for precharge power-down per rank (pJ)
system.mem_ctrls.dram.rank1.selfRefreshEnergy            0                       # Energy for self refresh per rank (pJ)
system.mem_ctrls.dram.rank1.totalEnergy   90712352670                       # Total energy per rank (pJ)
system.mem_ctrls.dram.rank1.averagePower   470.048339                       # Core power per rank (mW)
system.mem_ctrls.dram.rank1.totalIdleTime            0                       # Total Idle time Per DRAM Rank
system.mem_ctrls.dram.rank1.pwrStateTime::IDLE 175277965500                       # Time in different power states
system.mem_ctrls.dram.rank1.pwrStateTime::REF   6444100000                       # Time in different power states
system.mem_ctrls.dram.rank1.pwrStateTime::SREF            0                       # Time in different power states
system.mem_ctrls.dram.rank1.pwrStateTime::PRE_PDN            0                       # Time in different power states
system.mem_ctrls.dram.rank1.pwrStateTime::ACT  11263092000                       # Time in different power states
system.mem_ctrls.dram.rank1.pwrStateTime::ACT_PDN            0                       # Time in different power states
system.mem_ctrls.power_state.pwrStateResidencyTicks::UNDEFINED 192985157500                       # Cumulative time (in ticks) in various power states
system.membus.trans_dist::ReadResp               7293                       # Transaction distribution
system.membus.trans_dist::WritebackDirty        10098                       # Transaction distribution
system.membus.trans_dist::CleanEvict             3953                       # Transaction distribution
system.membus.trans_dist::ReadExReq             14942                       # Transaction distribution
system.membus.trans_dist::ReadExResp            14942                       # Transaction distribution
system.membus.trans_dist::ReadSharedReq          7293                       # Transaction distribution
system.membus.pkt_count_system.l2.mem_side_port::system.mem_ctrls.port        58521                       # Packet count per connected requestor and responder (bytes)
system.membus.pkt_count_system.l2.mem_side_port::total        58521                       # Packet count per connected requestor and responder (bytes)
system.membus.pkt_count::total                  58521                       # Packet count per connected requestor and responder (bytes)
system.membus.pkt_size_system.l2.mem_side_port::system.mem_ctrls.port      1034656                       # Cumulative packet size per connected requestor and responder (bytes)
system.membus.pkt_size_system.l2.mem_side_port::total      1034656                       # Cumulative packet size per connected requestor and responder (bytes)
system.membus.pkt_size::total                 1034656                       # Cumulative packet size per connected requestor and responder (bytes)
system.membus.snoops                                0                       # Total snoops (count)
system.membus.snoopTraffic                          0                       # Total snoop traffic (bytes)
system.membus.snoop_fanout::samples             22235                       # Request fanout histogram
system.membus.snoop_fanout::mean                    0                       # Request fanout histogram
system.membus.snoop_fanout::stdev                   0                       # Request fanout histogram
system.membus.snoop_fanout::underflows              0      0.00%      0.00% # Request fanout histogram
system.membus.snoop_fanout::0                   22235    100.00%    100.00% # Request fanout histogram
system.membus.snoop_fanout::1                       0      0.00%    100.00% # Request fanout histogram
system.membus.snoop_fanout::overflows               0      0.00%    100.00% # Request fanout histogram
system.membus.snoop_fanout::min_value               0                       # Request fanout histogram
system.membus.snoop_fanout::max_value               0                       # Request fanout histogram
system.membus.snoop_fanout::total               22235                       # Request fanout histogram
system.membus.power_state.pwrStateResidencyTicks::UNDEFINED 192985157500                       # Cumulative time (in ticks) in various power states
system.membus.reqLayer2.occupancy            56773500                       # Layer occupancy (ticks)
system.membus.reqLayer2.utilization               0.0                       # Layer utilization (%)
system.membus.respLayer1.occupancy           73999250                       # Layer occupancy (ticks)
system.membus.respLayer1.utilization              0.0                       # Layer utilization (%)
system.tol2bus.trans_dist::ReadResp             18402                       # Transaction distribution
system.tol2bus.trans_dist::WritebackDirty        66493                       # Transaction distribution
system.tol2bus.trans_dist::WritebackClean           64                       # Transaction distribution
system.tol2bus.trans_dist::CleanEvict           60415                       # Transaction distribution
system.tol2bus.trans_dist::ReadExReq            48652                       # Transaction distribution
system.tol2bus.trans_dist::ReadExResp           48652                       # Transaction distribution
system.tol2bus.trans_dist::ReadCleanReq          2480                       # Transaction distribution
system.tol2bus.trans_dist::ReadSharedReq        15922                       # Transaction distribution
system.tol2bus.pkt_count_system.cpu.icache.mem_side_port::system.l2.cpu_side_port         5024                       # Packet count per connected requestor and responder (bytes)
system.tol2bus.pkt_count_system.cpu.dcache.mem_side_port::system.l2.cpu_side_port       189626                       # Packet count per connected requestor and responder (bytes)
system.tol2bus.pkt_count::total                194650                       # Packet count per connected requestor and responder (bytes)
system.tol2bus.pkt_size_system.cpu.icache.mem_side_port::system.l2.cpu_side_port        81408                       # Cumulative packet size per connected requestor and responder (bytes)
system.tol2bus.pkt_size_system.cpu.dcache.mem_side_port::system.l2.cpu_side_port      3871008                       # Cumulative packet size per connected requestor and responder (bytes)
system.tol2bus.pkt_size::total                3952416                       # Cumulative packet size per connected requestor and responder (bytes)
system.tol2bus.snoops                           66430                       # Total snoops (count)
system.tol2bus.snoopTraffic                    323136                       # Total snoop traffic (bytes)
system.tol2bus.snoop_fanout::samples           133484                       # Request fanout histogram
system.tol2bus.snoop_fanout::mean            0.420515                       # Request fanout histogram
system.tol2bus.snoop_fanout::stdev           0.493644                       # Request fanout histogram
system.tol2bus.snoop_fanout::underflows             0      0.00%      0.00% # Request fanout histogram
system.tol2bus.snoop_fanout::0                  77352     57.95%     57.95% # Request fanout histogram
system.tol2bus.snoop_fanout::1                  56132     42.05%    100.00% # Request fanout histogram
system.tol2bus.snoop_fanout::2                      0      0.00%    100.00% # Request fanout histogram
system.tol2bus.snoop_fanout::3                      0      0.00%    100.00% # Request fanout histogram
system.tol2bus.snoop_fanout::4                      0      0.00%    100.00% # Request fanout histogram
system.tol2bus.snoop_fanout::overflows              0      0.00%    100.00% # Request fanout histogram
system.tol2bus.snoop_fanout::min_value              0                       # Request fanout histogram
system.tol2bus.snoop_fanout::max_value              1                       # Request fanout histogram
system.tol2bus.snoop_fanout::total             133484                       # Request fanout histogram
system.tol2bus.power_state.pwrStateResidencyTicks::UNDEFINED 192985157500                       # Cumulative time (in ticks) in various power states
system.tol2bus.reqLayer0.occupancy           92027500                       # Layer occupancy (ticks)
system.tol2bus.reqLayer0.utilization              0.0                       # Layer utilization (%)
system.tol2bus.respLayer0.occupancy           2480000                       # Layer occupancy (ticks)
system.tol2bus.respLayer0.utilization             0.0                       # Layer utilization (%)
system.tol2bus.respLayer1.occupancy          64574000                       # Layer occupancy (ticks)
system.tol2bus.respLayer1.utilization             0.0                       # Layer utilization (%)
system.voltage_domain.voltage                       1                       # Voltage in Volts

---------- End Simulation Statistics   ----------
