
---------- Begin Simulation Statistics ----------
final_tick                               191284126500                       # Number of ticks from beginning of simulation (restored from checkpoints and never reset)
host_inst_rate                                 793593                       # Simulator instruction rate (inst/s)
host_mem_usage                                 656700                       # Number of bytes of host memory used
host_op_rate                                  1461893                       # Simulator op (including micro ops) rate (op/s)
host_seconds                                   126.01                       # Real time elapsed on the host
host_tick_rate                             1518014815                       # Simulator tick rate (ticks/s)
sim_freq                                 1000000000000                       # Frequency of simulated ticks
sim_insts                                   100000001                       # Number of instructions simulated
sim_ops                                     184212218                       # Number of ops (including micro ops) simulated
sim_seconds                                  0.191284                       # Number of seconds simulated
sim_ticks                                191284126500                       # Number of ticks simulated
system.cpu.Branches                          21138365                       # Number of branches fetched
system.cpu.committedInsts                   100000001                       # Number of instructions committed
system.cpu.committedOps                     184212218                       # Number of ops (including micro ops) committed
system.cpu.idle_fraction                            0                       # Percentage of idle cycles
system.cpu.not_idle_fraction                        1                       # Percentage of non-idle cycles
system.cpu.numCycles                        382568253                       # number of cpu cycles simulated
system.cpu.numWorkItemsCompleted                    0                       # number of work items this cpu completed
system.cpu.numWorkItemsStarted                      0                       # number of work items this cpu started
system.cpu.num_busy_cycles                  382568253                       # Number of busy cycles
system.cpu.num_cc_register_reads            110470900                       # number of times the CC registers were read
system.cpu.num_cc_register_writes            56278691                       # number of times the CC registers were written
system.cpu.num_conditional_control_insts     17377044                       # number of instructions that are conditional controls
system.cpu.num_fp_alu_accesses                4198252                       # Number of float alu accesses
system.cpu.num_fp_insts                       4198252                       # number of float instructions
system.cpu.num_fp_register_reads              4465556                       # number of times the floating registers were read
system.cpu.num_fp_register_writes             2555554                       # number of times the floating registers were written
system.cpu.num_func_calls                     1777727                       # number of times a function call or return occured
system.cpu.num_idle_cycles                          0                       # Number of idle cycles
system.cpu.num_int_alu_accesses             181168224                       # Number of integer alu accesses
system.cpu.num_int_insts                    181168224                       # number of integer instructions
system.cpu.num_int_register_reads           359599209                       # number of times the integer registers were read
system.cpu.num_int_register_writes          144214147                       # number of times the integer registers were written
system.cpu.num_load_insts                    23270941                       # Number of load instructions
system.cpu.num_mem_refs                      38707146                       # number of memory refs
system.cpu.num_store_insts                   15436205                       # Number of store instructions
system.cpu.num_vec_alu_accesses                     0                       # Number of vector alu accesses
system.cpu.num_vec_insts                            0                       # number of vector instructions
system.cpu.num_vec_register_reads                   0                       # number of times the vector registers were read
system.cpu.num_vec_register_writes                  0                       # number of times the vector registers were written
system.cpu.op_class::No_OpClass               1407926      0.76%      0.76% # Class of executed instruction
system.cpu.op_class::IntAlu                 141803021     76.98%     77.74% # Class of executed instruction
system.cpu.op_class::IntMult                   451603      0.25%     77.99% # Class of executed instruction
system.cpu.op_class::IntDiv                        28      0.00%     77.99% # Class of executed instruction
system.cpu.op_class::FloatAdd                  465164      0.25%     78.24% # Class of executed instruction
system.cpu.op_class::FloatCmp                       0      0.00%     78.24% # Class of executed instruction
system.cpu.op_class::FloatCvt                       0      0.00%     78.24% # Class of executed instruction
system.cpu.op_class::FloatMult                      0      0.00%     78.24% # Class of executed instruction
system.cpu.op_class::FloatMultAcc                   0      0.00%     78.24% # Class of executed instruction
system.cpu.op_class::FloatDiv                       0      0.00%     78.24% # Class of executed instruction
system.cpu.op_class::FloatMisc                      0      0.00%     78.24% # Class of executed instruction
system.cpu.op_class::FloatSqrt                      0      0.00%     78.24% # Class of executed instruction
system.cpu.op_class::SimdAdd                        0      0.00%     78.24% # Class of executed instruction
system.cpu.op_class::SimdAddAcc                     0      0.00%     78.24% # Class of executed instruction
system.cpu.op_class::SimdAlu                    95520      0.05%     78.29% # Class of executed instruction
system.cpu.op_class::SimdCmp                        0      0.00%     78.29% # Class of executed instruction
system.cpu.op_class::SimdCvt                   215010      0.12%     78.41% # Class of executed instruction
system.cpu.op_class::SimdMisc                 1068136      0.58%     78.99% # Class of executed instruction
system.cpu.op_class::SimdMult                       0      0.00%     78.99% # Class of executed instruction
system.cpu.op_class::SimdMultAcc                    0      0.00%     78.99% # Class of executed instruction
system.cpu.op_class::SimdShift                      0      0.00%     78.99% # Class of executed instruction
system.cpu.op_class::SimdShiftAcc                   0      0.00%     78.99% # Class of executed instruction
system.cpu.op_class::SimdDiv                        0      0.00%     78.99% # Class of executed instruction
system.cpu.op_class::SimdSqrt                       0      0.00%     78.99% # Class of executed instruction
system.cpu.op_class::SimdFloatAdd                   0      0.00%     78.99% # Class of executed instruction
system.cpu.op_class::SimdFloatAlu                   0      0.00%     78.99% # Class of executed instruction
system.cpu.op_class::SimdFloatCmp                   0      0.00%     78.99% # Class of executed instruction
system.cpu.op_class::SimdFloatCvt                   0      0.00%     78.99% # Class of executed instruction
system.cpu.op_class::SimdFloatDiv                   0      0.00%     78.99% # Class of executed instruction
system.cpu.op_class::SimdFloatMisc                  0      0.00%     78.99% # Class of executed instruction
system.cpu.op_class::SimdFloatMult                  0      0.00%     78.99% # Class of executed instruction
system.cpu.op_class::SimdFloatMultAcc               0      0.00%     78.99% # Class of executed instruction
system.cpu.op_class::SimdFloatSqrt                  0      0.00%     78.99% # Class of executed instruction
system.cpu.op_class::SimdReduceAdd                  0      0.00%     78.99% # Class of executed instruction
system.cpu.op_class::SimdReduceAlu                  0      0.00%     78.99% # Class of executed instruction
system.cpu.op_class::SimdReduceCmp                  0      0.00%     78.99% # Class of executed instruction
system.cpu.op_class::SimdFloatReduceAdd             0      0.00%     78.99% # Class of executed instruction
system.cpu.op_class::SimdFloatReduceCmp             0      0.00%     78.99% # Class of executed instruction
system.cpu.op_class::SimdAes                        0      0.00%     78.99% # Class of executed instruction
system.cpu.op_class::SimdAesMix                     0      0.00%     78.99% # Class of executed instruction
system.cpu.op_class::SimdSha1Hash                   0      0.00%     78.99% # Class of executed instruction
system.cpu.op_class::SimdSha1Hash2                  0      0.00%     78.99% # Class of executed instruction
system.cpu.op_class::SimdSha256Hash                 0      0.00%     78.99% # Class of executed instruction
system.cpu.op_class::SimdSha256Hash2                0      0.00%     78.99% # Class of executed instruction
system.cpu.op_class::SimdShaSigma2                  0      0.00%     78.99% # Class of executed instruction
system.cpu.op_class::SimdShaSigma3                  0      0.00%     78.99% # Class of executed instruction
system.cpu.op_class::SimdPredAlu                    0      0.00%     78.99% # Class of executed instruction
system.cpu.op_class::MemRead                 22624662     12.28%     91.27% # Class of executed instruction
system.cpu.op_class::MemWrite                14008515      7.60%     98.87% # Class of executed instruction
system.cpu.op_class::FloatMemRead              646279      0.35%     99.22% # Class of executed instruction
system.cpu.op_class::FloatMemWrite            1427690      0.78%    100.00% # Class of executed instruction
system.cpu.op_class::IprAccess                      0      0.00%    100.00% # Class of executed instruction
system.cpu.op_class::InstPrefetch                   0      0.00%    100.00% # Class of executed instruction
system.cpu.op_class::total                  184213554                       # Class of executed instruction
system.cpu.workload.numSyscalls                    93                       # Number of system calls
system.membus.snoop_filter.hit_multi_requests            0                       # Number of requests hitting in the snoop filter with multiple (>1) holders of the requested data.
system.membus.snoop_filter.hit_multi_snoops            0                       # Number of snoops hitting in the snoop filter with multiple (>1) holders of the requested data.
system.membus.snoop_filter.hit_single_requests       149046                       # Number of requests hitting in the snoop filter with a single holder of the requested data.
system.membus.snoop_filter.hit_single_snoops            0                       # Number of snoops hitting in the snoop filter with a single holder of the requested data.
system.membus.snoop_filter.tot_requests        309361                       # Total number of requests made to the snoop filter.
system.membus.snoop_filter.tot_snoops               0                       # Total number of snoops made to the snoop filter.
system.tol2bus.snoop_filter.hit_multi_requests            0                       # Number of requests hitting in the snoop filter with multiple (>1) holders of the requested data.
system.tol2bus.snoop_filter.hit_multi_snoops            0                       # Number of snoops hitting in the snoop filter with multiple (>1) holders of the requested data.
system.tol2bus.snoop_filter.hit_single_requests       151436                       # Number of requests hitting in the snoop filter with a single holder of the requested data.
system.tol2bus.snoop_filter.hit_single_snoops       158499                       # Number of snoops hitting in the snoop filter with a single holder of the requested data.
system.tol2bus.snoop_filter.tot_requests       312093                       # Total number of requests made to the snoop filter.
system.tol2bus.snoop_filter.tot_snoops         158499                       # Total number of snoops made to the snoop filter.
system.clk_domain.clock                          1000                       # Clock period in ticks
system.cpu.dcache.demand_hits::.cpu.data     38578610                       # number of demand (read+write) hits
system.cpu.dcache.demand_hits::total         38578610                       # number of demand (read+write) hits
system.cpu.dcache.overall_hits::.cpu.data     38578610                       # number of overall hits
system.cpu.dcache.overall_hits::total        38578610                       # number of overall hits
system.cpu.dcache.demand_misses::.cpu.data       159607                       # number of demand (read+write) misses
system.cpu.dcache.demand_misses::total         159607                       # number of demand (read+write) misses
system.cpu.dcache.overall_misses::.cpu.data       159607                       # number of overall misses
system.cpu.dcache.overall_misses::total        159607                       # number of overall misses
system.cpu.dcache.demand_miss_latency::.cpu.data  12895278000                       # number of demand (read+write) miss cycles
system.cpu.dcache.demand_miss_latency::total  12895278000                       # number of demand (read+write) miss cycles
system.cpu.dcache.overall_miss_latency::.cpu.data  12895278000                       # number of overall miss cycles
system.cpu.dcache.overall_miss_latency::total  12895278000                       # number of overall miss cycles
system.cpu.dcache.demand_accesses::.cpu.data     38738217                       # number of demand (read+write) accesses
system.cpu.dcache.demand_accesses::total     38738217                       # number of demand (read+write) accesses
system.cpu.dcache.overall_accesses::.cpu.data     38738217                       # number of overall (read+write) accesses
system.cpu.dcache.overall_accesses::total     38738217                       # number of overall (read+write) accesses
system.cpu.dcache.demand_miss_rate::.cpu.data     0.004120                       # miss rate for demand accesses
system.cpu.dcache.demand_miss_rate::total     0.004120                       # miss rate for demand accesses
system.cpu.dcache.overall_miss_rate::.cpu.data     0.004120                       # miss rate for overall accesses
system.cpu.dcache.overall_miss_rate::total     0.004120                       # miss rate for overall accesses
system.cpu.dcache.demand_avg_miss_latency::.cpu.data 80793.937609                       # average overall miss latency
system.cpu.dcache.demand_avg_miss_latency::total 80793.937609                       # average overall miss latency
system.cpu.dcache.overall_avg_miss_latency::.cpu.data 80793.937609                       # average overall miss latency
system.cpu.dcache.overall_avg_miss_latency::total 80793.937609                       # average overall miss latency
system.cpu.dcache.blocked_cycles::no_mshrs            0                       # number of cycles access was blocked
system.cpu.dcache.blocked_cycles::no_targets            0                       # number of cycles access was blocked
system.cpu.dcache.blocked::no_mshrs                 0                       # number of cycles access was blocked
system.cpu.dcache.blocked::no_targets               0                       # number of cycles access was blocked
system.cpu.dcache.avg_blocked_cycles::no_mshrs          nan                       # average number of cycles each access was blocked
system.cpu.dcache.avg_blocked_cycles::no_targets          nan                       # average number of cycles each access was blocked
system.cpu.dcache.writebacks::.writebacks       149607                       # number of writebacks
system.cpu.dcache.writebacks::total            149607                       # number of writebacks
system.cpu.dcache.demand_mshr_misses::.cpu.data       159607                       # number of demand (read+write) MSHR misses
system.cpu.dcache.demand_mshr_misses::total       159607                       # number of demand (read+write) MSHR misses
system.cpu.dcache.overall_mshr_misses::.cpu.data       159607                       # number of overall MSHR misses
system.cpu.dcache.overall_mshr_misses::total       159607                       # number of overall MSHR misses
system.cpu.dcache.demand_mshr_miss_latency::.cpu.data  12735671000                       # number of demand (read+write) MSHR miss cycles
system.cpu.dcache.demand_mshr_miss_latency::total  12735671000                       # number of demand (read+write) MSHR miss cycles
system.cpu.dcache.overall_mshr_miss_latency::.cpu.data  12735671000                       # number of overall MSHR miss cycles
system.cpu.dcache.overall_mshr_miss_latency::total  12735671000                       # number of overall MSHR miss cycles
system.cpu.dcache.demand_mshr_miss_rate::.cpu.data     0.004120                       # mshr miss rate for demand accesses
system.cpu.dcache.demand_mshr_miss_rate::total     0.004120                       # mshr miss rate for demand accesses
system.cpu.dcache.overall_mshr_miss_rate::.cpu.data     0.004120                       # mshr miss rate for overall accesses
system.cpu.dcache.overall_mshr_miss_rate::total     0.004120                       # mshr miss rate for overall accesses
system.cpu.dcache.demand_avg_mshr_miss_latency::.cpu.data 79793.937609                       # average overall mshr miss latency
system.cpu.dcache.demand_avg_mshr_miss_latency::total 79793.937609                       # average overall mshr miss latency
system.cpu.dcache.overall_avg_mshr_miss_latency::.cpu.data 79793.937609                       # average overall mshr miss latency
system.cpu.dcache.overall_avg_mshr_miss_latency::total 79793.937609                       # average overall mshr miss latency
system.cpu.dcache.replacements                 151415                       # number of replacements
system.cpu.dcache.ReadReq_hits::.cpu.data     23281196                       # number of ReadReq hits
system.cpu.dcache.ReadReq_hits::total        23281196                       # number of ReadReq hits
system.cpu.dcache.ReadReq_misses::.cpu.data        22052                       # number of ReadReq misses
system.cpu.dcache.ReadReq_misses::total         22052                       # number of ReadReq misses
system.cpu.dcache.ReadReq_miss_latency::.cpu.data   1940080000                       # number of ReadReq miss cycles
system.cpu.dcache.ReadReq_miss_latency::total   1940080000                       # number of ReadReq miss cycles
system.cpu.dcache.ReadReq_accesses::.cpu.data     23303248                       # number of ReadReq accesses(hits+misses)
system.cpu.dcache.ReadReq_accesses::total     23303248                       # number of ReadReq accesses(hits+misses)
system.cpu.dcache.ReadReq_miss_rate::.cpu.data     0.000946                       # miss rate for ReadReq accesses
system.cpu.dcache.ReadReq_miss_rate::total     0.000946                       # miss rate for ReadReq accesses
system.cpu.dcache.ReadReq_avg_miss_latency::.cpu.data 87977.507709                       # average ReadReq miss latency
system.cpu.dcache.ReadReq_avg_miss_latency::total 87977.507709                       # average ReadReq miss latency
system.cpu.dcache.ReadReq_mshr_misses::.cpu.data        22052                       # number of ReadReq MSHR misses
system.cpu.dcache.ReadReq_mshr_misses::total        22052                       # number of ReadReq MSHR misses
system.cpu.dcache.ReadReq_mshr_miss_latency::.cpu.data   1918028000                       # number of ReadReq MSHR miss cycles
system.cpu.dcache.ReadReq_mshr_miss_latency::total   1918028000                       # number of ReadReq MSHR miss cycles
system.cpu.dcache.ReadReq_mshr_miss_rate::.cpu.data     0.000946                       # mshr miss rate for ReadReq accesses
system.cpu.dcache.ReadReq_mshr_miss_rate::total     0.000946                       # mshr miss rate for ReadReq accesses
system.cpu.dcache.ReadReq_avg_mshr_miss_latency::.cpu.data 86977.507709                       # average ReadReq mshr miss latency
system.cpu.dcache.ReadReq_avg_mshr_miss_latency::total 86977.507709                       # average ReadReq mshr miss latency
system.cpu.dcache.WriteReq_hits::.cpu.data     15297414                       # number of WriteReq hits
system.cpu.dcache.WriteReq_hits::total       15297414                       # number of WriteReq hits
system.cpu.dcache.WriteReq_misses::.cpu.data       137555                       # number of WriteReq misses
system.cpu.dcache.WriteReq_misses::total       137555                       # number of WriteReq misses
system.cpu.dcache.WriteReq_miss_latency::.cpu.data  10955198000                       # number of WriteReq miss cycles
system.cpu.dcache.WriteReq_miss_latency::total  10955198000                       # number of WriteReq miss cycles
system.cpu.dcache.WriteReq_accesses::.cpu.data     15434969                       # number of WriteReq accesses(hits+misses)
system.cpu.dcache.WriteReq_accesses::total     15434969                       # number of WriteReq accesses(hits+misses)
system.cpu.dcache.WriteReq_miss_rate::.cpu.data     0.008912                       # miss rate for WriteReq accesses
system.cpu.dcache.WriteReq_miss_rate::total     0.008912                       # miss rate for WriteReq accesses
system.cpu.dcache.WriteReq_avg_miss_latency::.cpu.data 79642.310349                       # average WriteReq miss latency
system.cpu.dcache.WriteReq_avg_miss_latency::total 79642.310349                       # average WriteReq miss latency
system.cpu.dcache.WriteReq_mshr_misses::.cpu.data       137555                       # number of WriteReq MSHR misses
system.cpu.dcache.WriteReq_mshr_misses::total       137555                       # number of WriteReq MSHR misses
system.cpu.dcache.WriteReq_mshr_miss_latency::.cpu.data  10817643000                       # number of WriteReq MSHR miss cycles
system.cpu.dcache.WriteReq_mshr_miss_latency::total  10817643000                       # number of WriteReq MSHR miss cycles
system.cpu.dcache.WriteReq_mshr_miss_rate::.cpu.data     0.008912                       # mshr miss rate for WriteReq accesses
system.cpu.dcache.WriteReq_mshr_miss_rate::total     0.008912                       # mshr miss rate for WriteReq accesses
system.cpu.dcache.WriteReq_avg_mshr_miss_latency::.cpu.data 78642.310349                       # average WriteReq mshr miss latency
system.cpu.dcache.WriteReq_avg_mshr_miss_latency::total 78642.310349                       # average WriteReq mshr miss latency
system.cpu.dcache.power_state.pwrStateResidencyTicks::UNDEFINED 191284126500                       # Cumulative time (in ticks) in various power states
system.cpu.dcache.tags.tagsinuse          8122.310546                       # Cycle average of tags in use
system.cpu.dcache.tags.total_refs            38738217                       # Total number of references to valid blocks.
system.cpu.dcache.tags.sampled_refs            159607                       # Sample count of references to valid blocks.
system.cpu.dcache.tags.avg_refs            242.710013                       # Average number of references to valid blocks.
system.cpu.dcache.tags.warmup_cycle            177500                       # Cycle when the warmup percentage was hit.
system.cpu.dcache.tags.occ_blocks::.cpu.data  8122.310546                       # Average occupied blocks per requestor
system.cpu.dcache.tags.occ_percent::.cpu.data     0.991493                       # Average percentage of cache occupancy
system.cpu.dcache.tags.occ_percent::total     0.991493                       # Average percentage of cache occupancy
system.cpu.dcache.tags.occ_task_id_blocks::1024         8192                       # Occupied blocks per task id
system.cpu.dcache.tags.age_task_id_blocks_1024::0            5                       # Occupied blocks per task id
system.cpu.dcache.tags.age_task_id_blocks_1024::1           51                       # Occupied blocks per task id
system.cpu.dcache.tags.age_task_id_blocks_1024::2          552                       # Occupied blocks per task id
system.cpu.dcache.tags.age_task_id_blocks_1024::3         5098                       # Occupied blocks per task id
system.cpu.dcache.tags.age_task_id_blocks_1024::4         2486                       # Occupied blocks per task id
system.cpu.dcache.tags.occ_task_id_percent::1024            1                       # Percentage of cache occupancy per task id
system.cpu.dcache.tags.tag_accesses          77636041                       # Number of tag accesses
system.cpu.dcache.tags.data_accesses         77636041                       # Number of data accesses
system.cpu.dcache.tags.power_state.pwrStateResidencyTicks::UNDEFINED 191284126500                       # Cumulative time (in ticks) in various power states
system.cpu.dtb.rdAccesses                    23303250                       # TLB accesses on read requests
system.cpu.dtb.wrAccesses                    15436210                       # TLB accesses on write requests
system.cpu.dtb.rdMisses                         21891                       # TLB misses on read requests
system.cpu.dtb.wrMisses                          2489                       # TLB misses on write requests
system.cpu.dtb.walker.power_state.pwrStateResidencyTicks::UNDEFINED 191284126500                       # Cumulative time (in ticks) in various power states
system.cpu.dtb_walker_cache.blocked_cycles::no_mshrs            0                       # number of cycles access was blocked
system.cpu.dtb_walker_cache.blocked_cycles::no_targets            0                       # number of cycles access was blocked
system.cpu.dtb_walker_cache.blocked::no_mshrs            0                       # number of cycles access was blocked
system.cpu.dtb_walker_cache.blocked::no_targets            0                       # number of cycles access was blocked
system.cpu.dtb_walker_cache.avg_blocked_cycles::no_mshrs          nan                       # average number of cycles each access was blocked
system.cpu.dtb_walker_cache.avg_blocked_cycles::no_targets          nan                       # average number of cycles each access was blocked
system.cpu.dtb_walker_cache.replacements            0                       # number of replacements
system.cpu.dtb_walker_cache.power_state.pwrStateResidencyTicks::UNDEFINED 191284126500                       # Cumulative time (in ticks) in various power states
system.cpu.dtb_walker_cache.tags.tagsinuse            0                       # Cycle average of tags in use
system.cpu.dtb_walker_cache.tags.total_refs            0                       # Total number of references to valid blocks.
system.cpu.dtb_walker_cache.tags.sampled_refs            0                       # Sample count of references to valid blocks.
system.cpu.dtb_walker_cache.tags.avg_refs          nan                       # Average number of references to valid blocks.
system.cpu.dtb_walker_cache.tags.warmup_cycle            0                       # Cycle when the warmup percentage was hit.
system.cpu.dtb_walker_cache.tags.tag_accesses            0                       # Number of tag accesses
system.cpu.dtb_walker_cache.tags.data_accesses            0                       # Number of data accesses
system.cpu.dtb_walker_cache.tags.power_state.pwrStateResidencyTicks::UNDEFINED 191284126500                       # Cumulative time (in ticks) in various power states
system.cpu.icache.demand_hits::.cpu.inst    139744651                       # number of demand (read+write) hits
system.cpu.icache.demand_hits::total        139744651                       # number of demand (read+write) hits
system.cpu.icache.overall_hits::.cpu.inst    139744651                       # number of overall hits
system.cpu.icache.overall_hits::total       139744651                       # number of overall hits
system.cpu.icache.demand_misses::.cpu.inst         1050                       # number of demand (read+write) misses
system.cpu.icache.demand_misses::total           1050                       # number of demand (read+write) misses
system.cpu.icache.overall_misses::.cpu.inst         1050                       # number of overall misses
system.cpu.icache.overall_misses::total          1050                       # number of overall misses
system.cpu.icache.demand_miss_latency::.cpu.inst     82184000                       # number of demand (read+write) miss cycles
system.cpu.icache.demand_miss_latency::total     82184000                       # number of demand (read+write) miss cycles
system.cpu.icache.overall_miss_latency::.cpu.inst     82184000                       # number of overall miss cycles
system.cpu.icache.overall_miss_latency::total     82184000                       # number of overall miss cycles
system.cpu.icache.demand_accesses::.cpu.inst    139745701                       # number of demand (read+write) accesses
system.cpu.icache.demand_accesses::total    139745701                       # number of demand (read+write) accesses
system.cpu.icache.overall_accesses::.cpu.inst    139745701                       # number of overall (read+write) accesses
system.cpu.icache.overall_accesses::total    139745701                       # number of overall (read+write) accesses
system.cpu.icache.demand_miss_rate::.cpu.inst     0.000008                       # miss rate for demand accesses
system.cpu.icache.demand_miss_rate::total     0.000008                       # miss rate for demand accesses
system.cpu.icache.overall_miss_rate::.cpu.inst     0.000008                       # miss rate for overall accesses
system.cpu.icache.overall_miss_rate::total     0.000008                       # miss rate for overall accesses
system.cpu.icache.demand_avg_miss_latency::.cpu.inst 78270.476190                       # average overall miss latency
system.cpu.icache.demand_avg_miss_latency::total 78270.476190                       # average overall miss latency
system.cpu.icache.overall_avg_miss_latency::.cpu.inst 78270.476190                       # average overall miss latency
system.cpu.icache.overall_avg_miss_latency::total 78270.476190                       # average overall miss latency
system.cpu.icache.blocked_cycles::no_mshrs            0                       # number of cycles access was blocked
system.cpu.icache.blocked_cycles::no_targets            0                       # number of cycles access was blocked
system.cpu.icache.blocked::no_mshrs                 0                       # number of cycles access was blocked
system.cpu.icache.blocked::no_targets               0                       # number of cycles access was blocked
system.cpu.icache.avg_blocked_cycles::no_mshrs          nan                       # average number of cycles each access was blocked
system.cpu.icache.avg_blocked_cycles::no_targets          nan                       # average number of cycles each access was blocked
system.cpu.icache.writebacks::.writebacks           21                       # number of writebacks
system.cpu.icache.writebacks::total                21                       # number of writebacks
system.cpu.icache.demand_mshr_misses::.cpu.inst         1050                       # number of demand (read+write) MSHR misses
system.cpu.icache.demand_mshr_misses::total         1050                       # number of demand (read+write) MSHR misses
system.cpu.icache.overall_mshr_misses::.cpu.inst         1050                       # number of overall MSHR misses
system.cpu.icache.overall_mshr_misses::total         1050                       # number of overall MSHR misses
system.cpu.icache.demand_mshr_miss_latency::.cpu.inst     81134000                       # number of demand (read+write) MSHR miss cycles
system.cpu.icache.demand_mshr_miss_latency::total     81134000                       # number of demand (read+write) MSHR miss cycles
system.cpu.icache.overall_mshr_miss_latency::.cpu.inst     81134000                       # number of overall MSHR miss cycles
system.cpu.icache.overall_mshr_miss_latency::total     81134000                       # number of overall MSHR miss cycles
system.cpu.icache.demand_mshr_miss_rate::.cpu.inst     0.000008                       # mshr miss rate for demand accesses
system.cpu.icache.demand_mshr_miss_rate::total     0.000008                       # mshr miss rate for demand accesses
system.cpu.icache.overall_mshr_miss_rate::.cpu.inst     0.000008                       # mshr miss rate for overall accesses
system.cpu.icache.overall_mshr_miss_rate::total     0.000008                       # mshr miss rate for overall accesses
system.cpu.icache.demand_avg_mshr_miss_latency::.cpu.inst 77270.476190                       # average overall mshr miss latency
system.cpu.icache.demand_avg_mshr_miss_latency::total 77270.476190                       # average overall mshr miss latency
system.cpu.icache.overall_avg_mshr_miss_latency::.cpu.inst 77270.476190                       # average overall mshr miss latency
system.cpu.icache.overall_avg_mshr_miss_latency::total 77270.476190                       # average overall mshr miss latency
system.cpu.icache.replacements                     21                       # number of replacements
system.cpu.icache.ReadReq_hits::.cpu.inst    139744651                       # number of ReadReq hits
system.cpu.icache.ReadReq_hits::total       139744651                       # number of ReadReq hits
system.cpu.icache.ReadReq_misses::.cpu.inst         1050                       # number of ReadReq misses
system.cpu.icache.ReadReq_misses::total          1050                       # number of ReadReq misses
system.cpu.icache.ReadReq_miss_latency::.cpu.inst     82184000                       # number of ReadReq miss cycles
system.cpu.icache.ReadReq_miss_latency::total     82184000                       # number of ReadReq miss cycles
system.cpu.icache.ReadReq_accesses::.cpu.inst    139745701                       # number of ReadReq accesses(hits+misses)
system.cpu.icache.ReadReq_accesses::total    139745701                       # number of ReadReq accesses(hits+misses)
system.cpu.icache.ReadReq_miss_rate::.cpu.inst     0.000008                       # miss rate for ReadReq accesses
system.cpu.icache.ReadReq_miss_rate::total     0.000008                       # miss rate for ReadReq accesses
system.cpu.icache.ReadReq_avg_miss_latency::.cpu.inst 78270.476190                       # average ReadReq miss latency
system.cpu.icache.ReadReq_avg_miss_latency::total 78270.476190                       # average ReadReq miss latency
system.cpu.icache.ReadReq_mshr_misses::.cpu.inst         1050                       # number of ReadReq MSHR misses
system.cpu.icache.ReadReq_mshr_misses::total         1050                       # number of ReadReq MSHR misses
system.cpu.icache.ReadReq_mshr_miss_latency::.cpu.inst     81134000                       # number of ReadReq MSHR miss cycles
system.cpu.icache.ReadReq_mshr_miss_latency::total     81134000                       # number of ReadReq MSHR miss cycles
system.cpu.icache.ReadReq_mshr_miss_rate::.cpu.inst     0.000008                       # mshr miss rate for ReadReq accesses
system.cpu.icache.ReadReq_mshr_miss_rate::total     0.000008                       # mshr miss rate for ReadReq accesses
system.cpu.icache.ReadReq_avg_mshr_miss_latency::.cpu.inst 77270.476190                       # average ReadReq mshr miss latency
system.cpu.icache.ReadReq_avg_mshr_miss_latency::total 77270.476190                       # average ReadReq mshr miss latency
system.cpu.icache.power_state.pwrStateResidencyTicks::UNDEFINED 191284126500                       # Cumulative time (in ticks) in various power states
system.cpu.icache.tags.tagsinuse          1024.454343                       # Cycle average of tags in use
system.cpu.icache.tags.total_refs           139745701                       # Total number of references to valid blocks.
system.cpu.icache.tags.sampled_refs              1050                       # Sample count of references to valid blocks.
system.cpu.icache.tags.avg_refs          133091.143810                       # Average number of references to valid blocks.
system.cpu.icache.tags.warmup_cycle             87500                       # Cycle when the warmup percentage was hit.
system.cpu.icache.tags.occ_blocks::.cpu.inst  1024.454343                       # Average occupied blocks per requestor
system.cpu.icache.tags.occ_percent::.cpu.inst     0.250111                       # Average percentage of cache occupancy
system.cpu.icache.tags.occ_percent::total     0.250111                       # Average percentage of cache occupancy
system.cpu.icache.tags.occ_task_id_blocks::1024         1029                       # Occupied blocks per task id
system.cpu.icache.tags.age_task_id_blocks_1024::4         1029                       # Occupied blocks per task id
system.cpu.icache.tags.occ_task_id_percent::1024     0.251221                       # Percentage of cache occupancy per task id
system.cpu.icache.tags.tag_accesses         279492452                       # Number of tag accesses
system.cpu.icache.tags.data_accesses        279492452                       # Number of data accesses
system.cpu.icache.tags.power_state.pwrStateResidencyTicks::UNDEFINED 191284126500                       # Cumulative time (in ticks) in various power states
system.cpu.interrupts.clk_domain.clock           8000                       # Clock period in ticks
system.cpu.itb.rdAccesses                           0                       # TLB accesses on read requests
system.cpu.itb.wrAccesses                   139745701                       # TLB accesses on write requests
system.cpu.itb.rdMisses                             0                       # TLB misses on read requests
system.cpu.itb.wrMisses                            51                       # TLB misses on write requests
system.cpu.itb.walker.power_state.pwrStateResidencyTicks::UNDEFINED 191284126500                       # Cumulative time (in ticks) in various power states
system.cpu.itb_walker_cache.blocked_cycles::no_mshrs            0                       # number of cycles access was blocked
system.cpu.itb_walker_cache.blocked_cycles::no_targets            0                       # number of cycles access was blocked
system.cpu.itb_walker_cache.blocked::no_mshrs            0                       # number of cycles access was blocked
system.cpu.itb_walker_cache.blocked::no_targets            0                       # number of cycles access was blocked
system.cpu.itb_walker_cache.avg_blocked_cycles::no_mshrs          nan                       # average number of cycles each access was blocked
system.cpu.itb_walker_cache.avg_blocked_cycles::no_targets          nan                       # average number of cycles each access was blocked
system.cpu.itb_walker_cache.replacements            0                       # number of replacements
system.cpu.itb_walker_cache.power_state.pwrStateResidencyTicks::UNDEFINED 191284126500                       # Cumulative time (in ticks) in various power states
system.cpu.itb_walker_cache.tags.tagsinuse            0                       # Cycle average of tags in use
system.cpu.itb_walker_cache.tags.total_refs            0                       # Total number of references to valid blocks.
system.cpu.itb_walker_cache.tags.sampled_refs            0                       # Sample count of references to valid blocks.
system.cpu.itb_walker_cache.tags.avg_refs          nan                       # Average number of references to valid blocks.
system.cpu.itb_walker_cache.tags.warmup_cycle            0                       # Cycle when the warmup percentage was hit.
system.cpu.itb_walker_cache.tags.tag_accesses            0                       # Number of tag accesses
system.cpu.itb_walker_cache.tags.data_accesses            0                       # Number of data accesses
system.cpu.itb_walker_cache.tags.power_state.pwrStateResidencyTicks::UNDEFINED 191284126500                       # Cumulative time (in ticks) in various power states
system.cpu.power_state.pwrStateResidencyTicks::ON 191284126500                       # Cumulative time (in ticks) in various power states
system.cpu.thread_0.numInsts                        0                       # Number of Instructions committed
system.cpu.thread_0.numOps                          0                       # Number of Ops committed
system.cpu.thread_0.numMemRefs                      0                       # Number of Memory References
system.cpu_clk_domain.clock                       500                       # Clock period in ticks
system.cpu_voltage_domain.voltage                   1                       # Voltage in Volts
system.l2.demand_hits::.cpu.data                  342                       # number of demand (read+write) hits
system.l2.demand_hits::total                      342                       # number of demand (read+write) hits
system.l2.overall_hits::.cpu.data                 342                       # number of overall hits
system.l2.overall_hits::total                     342                       # number of overall hits
system.l2.demand_misses::.cpu.inst               1050                       # number of demand (read+write) misses
system.l2.demand_misses::.cpu.data             159265                       # number of demand (read+write) misses
system.l2.demand_misses::total                 160315                       # number of demand (read+write) misses
system.l2.overall_misses::.cpu.inst              1050                       # number of overall misses
system.l2.overall_misses::.cpu.data            159265                       # number of overall misses
system.l2.overall_misses::total                160315                       # number of overall misses
system.l2.demand_miss_latency::.cpu.inst     79559000                       # number of demand (read+write) miss cycles
system.l2.demand_miss_latency::.cpu.data  12492669500                       # number of demand (read+write) miss cycles
system.l2.demand_miss_latency::total      12572228500                       # number of demand (read+write) miss cycles
system.l2.overall_miss_latency::.cpu.inst     79559000                       # number of overall miss cycles
system.l2.overall_miss_latency::.cpu.data  12492669500                       # number of overall miss cycles
system.l2.overall_miss_latency::total     12572228500                       # number of overall miss cycles
system.l2.demand_accesses::.cpu.inst             1050                       # number of demand (read+write) accesses
system.l2.demand_accesses::.cpu.data           159607                       # number of demand (read+write) accesses
system.l2.demand_accesses::total               160657                       # number of demand (read+write) accesses
system.l2.overall_accesses::.cpu.inst            1050                       # number of overall (read+write) accesses
system.l2.overall_accesses::.cpu.data          159607                       # number of overall (read+write) accesses
system.l2.overall_accesses::total              160657                       # number of overall (read+write) accesses
system.l2.demand_miss_rate::.cpu.inst               1                       # miss rate for demand accesses
system.l2.demand_miss_rate::.cpu.data        0.997857                       # miss rate for demand accesses
system.l2.demand_miss_rate::total            0.997871                       # miss rate for demand accesses
system.l2.overall_miss_rate::.cpu.inst              1                       # miss rate for overall accesses
system.l2.overall_miss_rate::.cpu.data       0.997857                       # miss rate for overall accesses
system.l2.overall_miss_rate::total           0.997871                       # miss rate for overall accesses
system.l2.demand_avg_miss_latency::.cpu.inst 75770.476190                       # average overall miss latency
system.l2.demand_avg_miss_latency::.cpu.data 78439.515901                       # average overall miss latency
system.l2.demand_avg_miss_latency::total 78422.034744                       # average overall miss latency
system.l2.overall_avg_miss_latency::.cpu.inst 75770.476190                       # average overall miss latency
system.l2.overall_avg_miss_latency::.cpu.data 78439.515901                       # average overall miss latency
system.l2.overall_avg_miss_latency::total 78422.034744                       # average overall miss latency
system.l2.blocked_cycles::no_mshrs                  0                       # number of cycles access was blocked
system.l2.blocked_cycles::no_targets                0                       # number of cycles access was blocked
system.l2.blocked::no_mshrs                         0                       # number of cycles access was blocked
system.l2.blocked::no_targets                       0                       # number of cycles access was blocked
system.l2.avg_blocked_cycles::no_mshrs            nan                       # average number of cycles each access was blocked
system.l2.avg_blocked_cycles::no_targets          nan                       # average number of cycles each access was blocked
system.l2.writebacks::.writebacks              147217                       # number of writebacks
system.l2.writebacks::total                    147217                       # number of writebacks
system.l2.demand_mshr_misses::.cpu.inst          1050                       # number of demand (read+write) MSHR misses
system.l2.demand_mshr_misses::.cpu.data        159265                       # number of demand (read+write) MSHR misses
system.l2.demand_mshr_misses::total            160315                       # number of demand (read+write) MSHR misses
system.l2.overall_mshr_misses::.cpu.inst         1050                       # number of overall MSHR misses
system.l2.overall_mshr_misses::.cpu.data       159265                       # number of overall MSHR misses
system.l2.overall_mshr_misses::total           160315                       # number of overall MSHR misses
system.l2.demand_mshr_miss_latency::.cpu.inst     69059000                       # number of demand (read+write) MSHR miss cycles
system.l2.demand_mshr_miss_latency::.cpu.data  10900019500                       # number of demand (read+write) MSHR miss cycles
system.l2.demand_mshr_miss_latency::total  10969078500                       # number of demand (read+write) MSHR miss cycles
system.l2.overall_mshr_miss_latency::.cpu.inst     69059000                       # number of overall MSHR miss cycles
system.l2.overall_mshr_miss_latency::.cpu.data  10900019500                       # number of overall MSHR miss cycles
system.l2.overall_mshr_miss_latency::total  10969078500                       # number of overall MSHR miss cycles
system.l2.demand_mshr_miss_rate::.cpu.inst            1                       # mshr miss rate for demand accesses
system.l2.demand_mshr_miss_rate::.cpu.data     0.997857                       # mshr miss rate for demand accesses
system.l2.demand_mshr_miss_rate::total       0.997871                       # mshr miss rate for demand accesses
system.l2.overall_mshr_miss_rate::.cpu.inst            1                       # mshr miss rate for overall accesses
system.l2.overall_mshr_miss_rate::.cpu.data     0.997857                       # mshr miss rate for overall accesses
system.l2.overall_mshr_miss_rate::total      0.997871                       # mshr miss rate for overall accesses
system.l2.demand_avg_mshr_miss_latency::.cpu.inst 65770.476190                       # average overall mshr miss latency
system.l2.demand_avg_mshr_miss_latency::.cpu.data 68439.515901                       # average overall mshr miss latency
system.l2.demand_avg_mshr_miss_latency::total 68422.034744                       # average overall mshr miss latency
system.l2.overall_avg_mshr_miss_latency::.cpu.inst 65770.476190                       # average overall mshr miss latency
system.l2.overall_avg_mshr_miss_latency::.cpu.data 68439.515901                       # average overall mshr miss latency
system.l2.overall_avg_mshr_miss_latency::total 68422.034744                       # average overall mshr miss latency
system.l2.replacements                         305738                       # number of replacements
system.l2.WritebackDirty_hits::.writebacks       149607                       # number of WritebackDirty hits
system.l2.WritebackDirty_hits::total           149607                       # number of WritebackDirty hits
system.l2.WritebackDirty_accesses::.writebacks       149607                       # number of WritebackDirty accesses(hits+misses)
system.l2.WritebackDirty_accesses::total       149607                       # number of WritebackDirty accesses(hits+misses)
system.l2.WritebackClean_hits::.writebacks           21                       # number of WritebackClean hits
system.l2.WritebackClean_hits::total               21                       # number of WritebackClean hits
system.l2.WritebackClean_accesses::.writebacks           21                       # number of WritebackClean accesses(hits+misses)
system.l2.WritebackClean_accesses::total           21                       # number of WritebackClean accesses(hits+misses)
system.l2.CleanEvict_mshr_misses::.writebacks         1807                       # number of CleanEvict MSHR misses
system.l2.CleanEvict_mshr_misses::total          1807                       # number of CleanEvict MSHR misses
system.l2.CleanEvict_mshr_miss_rate::.writebacks          inf                       # mshr miss rate for CleanEvict accesses
system.l2.CleanEvict_mshr_miss_rate::total          inf                       # mshr miss rate for CleanEvict accesses
system.l2.ReadExReq_misses::.cpu.data          137555                       # number of ReadExReq misses
system.l2.ReadExReq_misses::total              137555                       # number of ReadExReq misses
system.l2.ReadExReq_miss_latency::.cpu.data  10611310500                       # number of ReadExReq miss cycles
system.l2.ReadExReq_miss_latency::total   10611310500                       # number of ReadExReq miss cycles
system.l2.ReadExReq_accesses::.cpu.data        137555                       # number of ReadExReq accesses(hits+misses)
system.l2.ReadExReq_accesses::total            137555                       # number of ReadExReq accesses(hits+misses)
system.l2.ReadExReq_miss_rate::.cpu.data            1                       # miss rate for ReadExReq accesses
system.l2.ReadExReq_miss_rate::total                1                       # miss rate for ReadExReq accesses
system.l2.ReadExReq_avg_miss_latency::.cpu.data 77142.310349                       # average ReadExReq miss latency
system.l2.ReadExReq_avg_miss_latency::total 77142.310349                       # average ReadExReq miss latency
system.l2.ReadExReq_mshr_misses::.cpu.data       137555                       # number of ReadExReq MSHR misses
system.l2.ReadExReq_mshr_misses::total         137555                       # number of ReadExReq MSHR misses
system.l2.ReadExReq_mshr_miss_latency::.cpu.data   9235760500                       # number of ReadExReq MSHR miss cycles
system.l2.ReadExReq_mshr_miss_latency::total   9235760500                       # number of ReadExReq MSHR miss cycles
system.l2.ReadExReq_mshr_miss_rate::.cpu.data            1                       # mshr miss rate for ReadExReq accesses
system.l2.ReadExReq_mshr_miss_rate::total            1                       # mshr miss rate for ReadExReq accesses
system.l2.ReadExReq_avg_mshr_miss_latency::.cpu.data 67142.310349                       # average ReadExReq mshr miss latency
system.l2.ReadExReq_avg_mshr_miss_latency::total 67142.310349                       # average ReadExReq mshr miss latency
system.l2.ReadCleanReq_misses::.cpu.inst         1050                       # number of ReadCleanReq misses
system.l2.ReadCleanReq_misses::total             1050                       # number of ReadCleanReq misses
system.l2.ReadCleanReq_miss_latency::.cpu.inst     79559000                       # number of ReadCleanReq miss cycles
system.l2.ReadCleanReq_miss_latency::total     79559000                       # number of ReadCleanReq miss cycles
system.l2.ReadCleanReq_accesses::.cpu.inst         1050                       # number of ReadCleanReq accesses(hits+misses)
system.l2.ReadCleanReq_accesses::total           1050                       # number of ReadCleanReq accesses(hits+misses)
system.l2.ReadCleanReq_miss_rate::.cpu.inst            1                       # miss rate for ReadCleanReq accesses
system.l2.ReadCleanReq_miss_rate::total             1                       # miss rate for ReadCleanReq accesses
system.l2.ReadCleanReq_avg_miss_latency::.cpu.inst 75770.476190                       # average ReadCleanReq miss latency
system.l2.ReadCleanReq_avg_miss_latency::total 75770.476190                       # average ReadCleanReq miss latency
system.l2.ReadCleanReq_mshr_misses::.cpu.inst         1050                       # number of ReadCleanReq MSHR misses
system.l2.ReadCleanReq_mshr_misses::total         1050                       # number of ReadCleanReq MSHR misses
system.l2.ReadCleanReq_mshr_miss_latency::.cpu.inst     69059000                       # number of ReadCleanReq MSHR miss cycles
system.l2.ReadCleanReq_mshr_miss_latency::total     69059000                       # number of ReadCleanReq MSHR miss cycles
system.l2.ReadCleanReq_mshr_miss_rate::.cpu.inst            1                       # mshr miss rate for ReadCleanReq accesses
system.l2.ReadCleanReq_mshr_miss_rate::total            1                       # mshr miss rate for ReadCleanReq accesses
system.l2.ReadCleanReq_avg_mshr_miss_latency::.cpu.inst 65770.476190                       # average ReadCleanReq mshr miss latency
system.l2.ReadCleanReq_avg_mshr_miss_latency::total 65770.476190                       # average ReadCleanReq mshr miss latency
system.l2.ReadSharedReq_hits::.cpu.data           342                       # number of ReadSharedReq hits
system.l2.ReadSharedReq_hits::total               342                       # number of ReadSharedReq hits
system.l2.ReadSharedReq_misses::.cpu.data        21710                       # number of ReadSharedReq misses
system.l2.ReadSharedReq_misses::total           21710                       # number of ReadSharedReq misses
system.l2.ReadSharedReq_miss_latency::.cpu.data   1881359000                       # number of ReadSharedReq miss cycles
system.l2.ReadSharedReq_miss_latency::total   1881359000                       # number of ReadSharedReq miss cycles
system.l2.ReadSharedReq_accesses::.cpu.data        22052                       # number of ReadSharedReq accesses(hits+misses)
system.l2.ReadSharedReq_accesses::total         22052                       # number of ReadSharedReq accesses(hits+misses)
system.l2.ReadSharedReq_miss_rate::.cpu.data     0.984491                       # miss rate for ReadSharedReq accesses
system.l2.ReadSharedReq_miss_rate::total     0.984491                       # miss rate for ReadSharedReq accesses
system.l2.ReadSharedReq_avg_miss_latency::.cpu.data 86658.636573                       # average ReadSharedReq miss latency
system.l2.ReadSharedReq_avg_miss_latency::total 86658.636573                       # average ReadSharedReq miss latency
system.l2.ReadSharedReq_mshr_misses::.cpu.data        21710                       # number of ReadSharedReq MSHR misses
system.l2.ReadSharedReq_mshr_misses::total        21710                       # number of ReadSharedReq MSHR misses
system.l2.ReadSharedReq_mshr_miss_latency::.cpu.data   1664259000                       # number of ReadSharedReq MSHR miss cycles
system.l2.ReadSharedReq_mshr_miss_latency::total   1664259000                       # number of ReadSharedReq MSHR miss cycles
system.l2.ReadSharedReq_mshr_miss_rate::.cpu.data     0.984491                       # mshr miss rate for ReadSharedReq accesses
system.l2.ReadSharedReq_mshr_miss_rate::total     0.984491                       # mshr miss rate for ReadSharedReq accesses
system.l2.ReadSharedReq_avg_mshr_miss_latency::.cpu.data 76658.636573                       # average ReadSharedReq mshr miss latency
system.l2.ReadSharedReq_avg_mshr_miss_latency::total 76658.636573                       # average ReadSharedReq mshr miss latency
system.l2.power_state.pwrStateResidencyTicks::UNDEFINED 191284126500                       # Cumulative time (in ticks) in various power states
system.l2.tags.tagsinuse                  4083.224942                       # Cycle average of tags in use
system.l2.tags.total_refs                      310286                       # Total number of references to valid blocks.
system.l2.tags.sampled_refs                    309834                       # Sample count of references to valid blocks.
system.l2.tags.avg_refs                      1.001459                       # Average number of references to valid blocks.
system.l2.tags.warmup_cycle                     77000                       # Cycle when the warmup percentage was hit.
system.l2.tags.occ_blocks::.writebacks    2013.976127                       # Average occupied blocks per requestor
system.l2.tags.occ_blocks::.cpu.inst         5.656917                       # Average occupied blocks per requestor
system.l2.tags.occ_blocks::.cpu.data      2063.591898                       # Average occupied blocks per requestor
system.l2.tags.occ_percent::.writebacks      0.491693                       # Average percentage of cache occupancy
system.l2.tags.occ_percent::.cpu.inst        0.001381                       # Average percentage of cache occupancy
system.l2.tags.occ_percent::.cpu.data        0.503807                       # Average percentage of cache occupancy
system.l2.tags.occ_percent::total            0.996881                       # Average percentage of cache occupancy
system.l2.tags.occ_task_id_blocks::1024          4096                       # Occupied blocks per task id
system.l2.tags.age_task_id_blocks_1024::0           10                       # Occupied blocks per task id
system.l2.tags.age_task_id_blocks_1024::1          102                       # Occupied blocks per task id
system.l2.tags.age_task_id_blocks_1024::2         1044                       # Occupied blocks per task id
system.l2.tags.age_task_id_blocks_1024::3         2940                       # Occupied blocks per task id
system.l2.tags.occ_task_id_percent::1024            1                       # Percentage of cache occupancy per task id
system.l2.tags.tag_accesses                    934020                       # Number of tag accesses
system.l2.tags.data_accesses                   934020                       # Number of data accesses
system.l2.tags.power_state.pwrStateResidencyTicks::UNDEFINED 191284126500                       # Cumulative time (in ticks) in various power states
system.mem_ctrls.avgPriority_.writebacks::samples    122372.00                       # Average QoS priority value for accepted requests
system.mem_ctrls.avgPriority_.cpu.inst::samples      1050.00                       # Average QoS priority value for accepted requests
system.mem_ctrls.avgPriority_.cpu.data::samples    159261.00                       # Average QoS priority value for accepted requests
system.mem_ctrls.priorityMinLatency      0.000000018750                       # per QoS priority minimum request to response latency (s)
system.mem_ctrls.priorityMaxLatency      0.000677080500                       # per QoS priority maximum request to response latency (s)
system.mem_ctrls.numReadWriteTurnArounds         7002                       # Number of turnarounds from READ to WRITE
system.mem_ctrls.numWriteReadTurnArounds         7002                       # Number of turnarounds from WRITE to READ
system.mem_ctrls.numStayReadState              513187                       # Number of times bus staying in READ state
system.mem_ctrls.numStayWriteState             115551                       # Number of times bus staying in WRITE state
system.mem_ctrls.readReqs                      160315                       # Number of read requests accepted
system.mem_ctrls.writeReqs                     147217                       # Number of write requests accepted
system.mem_ctrls.readBursts                    160315                       # Number of controller read bursts, including those serviced by the write queue
system.mem_ctrls.writeBursts                   147217                       # Number of controller write bursts, including those merged in the write queue
system.mem_ctrls.servicedByWrQ                      4                       # Number of controller read bursts serviced by the write queue
system.mem_ctrls.mergedWrBursts                 24845                       # Number of controller write bursts merged with an existing one
system.mem_ctrls.neitherReadNorWriteReqs            0                       # Number of requests that are neither read nor write
system.mem_ctrls.avgRdQLen                       1.00                       # Average read queue length when enqueuing
system.mem_ctrls.avgWrQLen                      24.36                       # Average write queue length when enqueuing
system.mem_ctrls.numRdRetry                         0                       # Number of times read queue was full causing retry
system.mem_ctrls.numWrRetry                         0                       # Number of times write queue was full causing retry
system.mem_ctrls.readPktSize::0                     0                       # Read request sizes (log2)
system.mem_ctrls.readPktSize::1                     0                       # Read request sizes (log2)
system.mem_ctrls.readPktSize::2                     0                       # Read request sizes (log2)
system.mem_ctrls.readPktSize::3                     0                       # Read request sizes (log2)
system.mem_ctrls.readPktSize::4                     0                       # Read request sizes (log2)
system.mem_ctrls.readPktSize::5                160315                       # Read request sizes (log2)
system.mem_ctrls.writePktSize::0                    0                       # Write request sizes (log2)
system.mem_ctrls.writePktSize::1                    0                       # Write request sizes (log2)
system.mem_ctrls.writePktSize::2                    0                       # Write request sizes (log2)
system.mem_ctrls.writePktSize::3                    0                       # Write request sizes (log2)
system.mem_ctrls.writePktSize::4                    0                       # Write request sizes (log2)
system.mem_ctrls.writePktSize::5               147217                       # Write request sizes (log2)
system.mem_ctrls.rdQLenPdf::0                  160311                       # What read queue length does an incoming req see
system.mem_ctrls.rdQLenPdf::1                       0                       # What read queue length does an incoming req see
system.mem_ctrls.rdQLenPdf::2                       0                       # What read queue length does an incoming req see
system.mem_ctrls.rdQLenPdf::3                       0                       # What read queue length does an incoming req see
system.mem_ctrls.rdQLenPdf::4                       0                       # What read queue length does an incoming req see
system.mem_ctrls.rdQLenPdf::5                       0                       # What read queue length does an incoming req see
system.mem_ctrls.rdQLenPdf::6                       0                       # What read queue length does an incoming req see
system.mem_ctrls.rdQLenPdf::7                       0                       # What read queue length does an incoming req see
system.mem_ctrls.rdQLenPdf::8                       0                       # What read queue length does an incoming req see
system.mem_ctrls.rdQLenPdf::9                       0                       # What read queue length does an incoming req see
system.mem_ctrls.rdQLenPdf::10                      0                       # What read queue length does an incoming req see
system.mem_ctrls.rdQLenPdf::11                      0                       # What read queue length does an incoming req see
system.mem_ctrls.rdQLenPdf::12                      0                       # What read queue length does an incoming req see
system.mem_ctrls.rdQLenPdf::13                      0                       # What read queue length does an incoming req see
system.mem_ctrls.rdQLenPdf::14                      0                       # What read queue length does an incoming req see
system.mem_ctrls.rdQLenPdf::15                      0                       # What read queue length does an incoming req see
system.mem_ctrls.rdQLenPdf::16                      0                       # What read queue length does an incoming req see
system.mem_ctrls.rdQLenPdf::17                      0                       # What read queue length does an incoming req see
system.mem_ctrls.rdQLenPdf::18                      0                       # What read queue length does an incoming req see
system.mem_ctrls.rdQLenPdf::19                      0                       # What read queue length does an incoming req see
system.mem_ctrls.rdQLenPdf::20                      0                       # What read queue length does an incoming req see
system.mem_ctrls.rdQLenPdf::21                      0                       # What read queue length does an incoming req see
system.mem_ctrls.rdQLenPdf::22                      0                       # What read queue length does an incoming req see
system.mem_ctrls.rdQLenPdf::23                      0                       # What read queue length does an incoming req see
system.mem_ctrls.rdQLenPdf::24                      0                       # What read queue length does an incoming req see
system.mem_ctrls.rdQLenPdf::25                      0                       # What read queue length does an incoming req see
system.mem_ctrls.rdQLenPdf::26                      0                       # What read queue length does an incoming req see
system.mem_ctrls.rdQLenPdf::27                      0                       # What read queue length does an incoming req see
system.mem_ctrls.rdQLenPdf::28                      0                       # What read queue length does an incoming req see
system.mem_ctrls.rdQLenPdf::29                      0                       # What read queue length does an incoming req see
system.mem_ctrls.rdQLenPdf::30                      0                       # What read queue length does an incoming req see
system.mem_ctrls.rdQLenPdf::31                      0                       # What read queue length does an incoming req see
system.mem_ctrls.wrQLenPdf::0                       1                       # What write queue length does an incoming req see
system.mem_ctrls.wrQLenPdf::1                       1                       # What write queue length does an incoming req see
system.mem_ctrls.wrQLenPdf::2                       1                       # What write queue length does an incoming req see
system.mem_ctrls.wrQLenPdf::3                       1                       # What write queue length does an incoming req see
system.mem_ctrls.wrQLenPdf::4                       1                       # What write queue length does an incoming req see
system.mem_ctrls.wrQLenPdf::5                       1                       # What write queue length does an incoming req see
system.mem_ctrls.wrQLenPdf::6                       1                       # What write queue length does an incoming req see
system.mem_ctrls.wrQLenPdf::7                       1                       # What write queue length does an incoming req see
system.mem_ctrls.wrQLenPdf::8                       1                       # What write queue length does an incoming req see
system.mem_ctrls.wrQLenPdf::9                       1                       # What write queue length does an incoming req see
system.mem_ctrls.wrQLenPdf::10                      1                       # What write queue length does an incoming req see
system.mem_ctrls.wrQLenPdf::11                      1                       # What write queue length does an incoming req see
system.mem_ctrls.wrQLenPdf::12                      1                       # What write queue length does an incoming req see
system.mem_ctrls.wrQLenPdf::13                      1                       # What write queue length does an incoming req see
system.mem_ctrls.wrQLenPdf::14                      1                       # What write queue length does an incoming req see
system.mem_ctrls.wrQLenPdf::15                   4725                       # What write queue length does an incoming req see
system.mem_ctrls.wrQLenPdf::16                   4926                       # What write queue length does an incoming req see
system.mem_ctrls.wrQLenPdf::17                   6908                       # What write queue length does an incoming req see
system.mem_ctrls.wrQLenPdf::18                   7050                       # What write queue length does an incoming req see
system.mem_ctrls.wrQLenPdf::19                   7068                       # What write queue length does an incoming req see
system.mem_ctrls.wrQLenPdf::20                   7070                       # What write queue length does an incoming req see
system.mem_ctrls.wrQLenPdf::21                   7086                       # What write queue length does an incoming req see
system.mem_ctrls.wrQLenPdf::22                   7112                       # What write queue length does an incoming req see
system.mem_ctrls.wrQLenPdf::23                   7104                       # What write queue length does an incoming req see
system.mem_ctrls.wrQLenPdf::24                   7082                       # What write queue length does an incoming req see
system.mem_ctrls.wrQLenPdf::25                   7072                       # What write queue length does an incoming req see
system.mem_ctrls.wrQLenPdf::26                   7046                       # What write queue length does an incoming req see
system.mem_ctrls.wrQLenPdf::27                   7040                       # What write queue length does an incoming req see
system.mem_ctrls.wrQLenPdf::28                   7039                       # What write queue length does an incoming req see
system.mem_ctrls.wrQLenPdf::29                   7013                       # What write queue length does an incoming req see
system.mem_ctrls.wrQLenPdf::30                   7011                       # What write queue length does an incoming req see
system.mem_ctrls.wrQLenPdf::31                   7002                       # What write queue length does an incoming req see
system.mem_ctrls.wrQLenPdf::32                   7002                       # What write queue length does an incoming req see
system.mem_ctrls.wrQLenPdf::33                      1                       # What write queue length does an incoming req see
system.mem_ctrls.wrQLenPdf::34                      0                       # What write queue length does an incoming req see
system.mem_ctrls.wrQLenPdf::35                      0                       # What write queue length does an incoming req see
system.mem_ctrls.wrQLenPdf::36                      0                       # What write queue length does an incoming req see
system.mem_ctrls.wrQLenPdf::37                      0                       # What write queue length does an incoming req see
system.mem_ctrls.wrQLenPdf::38                      0                       # What write queue length does an incoming req see
system.mem_ctrls.wrQLenPdf::39                      0                       # What write queue length does an incoming req see
system.mem_ctrls.wrQLenPdf::40                      0                       # What write queue length does an incoming req see
system.mem_ctrls.wrQLenPdf::41                      0                       # What write queue length does an incoming req see
system.mem_ctrls.wrQLenPdf::42                      0                       # What write queue length does an incoming req see
system.mem_ctrls.wrQLenPdf::43                      0                       # What write queue length does an incoming req see
system.mem_ctrls.wrQLenPdf::44                      0                       # What write queue length does an incoming req see
system.mem_ctrls.wrQLenPdf::45                      0                       # What write queue length does an incoming req see
system.mem_ctrls.wrQLenPdf::46                      0                       # What write queue length does an incoming req see
system.mem_ctrls.wrQLenPdf::47                      0                       # What write queue length does an incoming req see
system.mem_ctrls.wrQLenPdf::48                      0                       # What write queue length does an incoming req see
system.mem_ctrls.wrQLenPdf::49                      0                       # What write queue length does an incoming req see
system.mem_ctrls.wrQLenPdf::50                      0                       # What write queue length does an incoming req see
system.mem_ctrls.wrQLenPdf::51                      0                       # What write queue length does an incoming req see
system.mem_ctrls.wrQLenPdf::52                      0                       # What write queue length does an incoming req see
system.mem_ctrls.wrQLenPdf::53                      0                       # What write queue length does an incoming req see
system.mem_ctrls.wrQLenPdf::54                      0                       # What write queue length does an incoming req see
system.mem_ctrls.wrQLenPdf::55                      0                       # What write queue length does an incoming req see
system.mem_ctrls.wrQLenPdf::56                      0                       # What write queue length does an incoming req see
system.mem_ctrls.wrQLenPdf::57                      0                       # What write queue length does an incoming req see
system.mem_ctrls.wrQLenPdf::58                      0                       # What write queue length does an incoming req see
system.mem_ctrls.wrQLenPdf::59                      0                       # What write queue length does an incoming req see
system.mem_ctrls.wrQLenPdf::60                      0                       # What write queue length does an incoming req see
system.mem_ctrls.wrQLenPdf::61                      0                       # What write queue length does an incoming req see
system.mem_ctrls.wrQLenPdf::62                      0                       # What write queue length does an incoming req see
system.mem_ctrls.wrQLenPdf::63                      0                       # What write queue length does an incoming req see
system.mem_ctrls.rdPerTurnAround::samples         7002                       # Reads before turning the bus around for writes
system.mem_ctrls.rdPerTurnAround::mean      22.894030                       # Reads before turning the bus around for writes
system.mem_ctrls.rdPerTurnAround::gmean     21.273379                       # Reads before turning the bus around for writes
system.mem_ctrls.rdPerTurnAround::stdev    109.230438                       # Reads before turning the bus around for writes
system.mem_ctrls.rdPerTurnAround::0-511          7001     99.99%     99.99% # Reads before turning the bus around for writes
system.mem_ctrls.rdPerTurnAround::8704-9215            1      0.01%    100.00% # Reads before turning the bus around for writes
system.mem_ctrls.rdPerTurnAround::total          7002                       # Reads before turning the bus around for writes
system.mem_ctrls.wrPerTurnAround::samples         7002                       # Writes before turning the bus around for reads
system.mem_ctrls.wrPerTurnAround::mean      17.473579                       # Writes before turning the bus around for reads
system.mem_ctrls.wrPerTurnAround::gmean     17.442979                       # Writes before turning the bus around for reads
system.mem_ctrls.wrPerTurnAround::stdev      1.023060                       # Writes before turning the bus around for reads
system.mem_ctrls.wrPerTurnAround::16             2110     30.13%     30.13% # Writes before turning the bus around for reads
system.mem_ctrls.wrPerTurnAround::17              147      2.10%     32.23% # Writes before turning the bus around for reads
system.mem_ctrls.wrPerTurnAround::18             4064     58.04%     90.27% # Writes before turning the bus around for reads
system.mem_ctrls.wrPerTurnAround::19              681      9.73%    100.00% # Writes before turning the bus around for reads
system.mem_ctrls.wrPerTurnAround::total          7002                       # Writes before turning the bus around for reads
system.mem_ctrls.bytesReadWrQ                     256                       # Total number of bytes read from write queue
system.mem_ctrls.bytesReadSys                 5130080                       # Total read bytes from the system interface side
system.mem_ctrls.bytesWrittenSys              4710944                       # Total written bytes from the system interface side
system.mem_ctrls.avgRdBWSys                     26.82                       # Average system read bandwidth in MiByte/s
system.mem_ctrls.avgWrBWSys                     24.63                       # Average system write bandwidth in MiByte/s
system.mem_ctrls.totGap                  191281911500                       # Total gap between requests
system.mem_ctrls.avgGap                     621990.27                       # Average gap between requests
system.mem_ctrls.requestorReadBytes::.cpu.inst        33600                       # Per-requestor bytes read from memory
system.mem_ctrls.requestorReadBytes::.cpu.data      5096352                       # Per-requestor bytes read from memory
system.mem_ctrls.requestorWriteBytes::.writebacks      3915200                       # Per-requestor bytes write to memory
system.mem_ctrls.requestorReadRate::.cpu.inst 175654.930781723786                       # Per-requestor bytes read from memory rate (Bytes/sec)
system.mem_ctrls.requestorReadRate::.cpu.data 26642838.029741059989                       # Per-requestor bytes read from memory rate (Bytes/sec)
system.mem_ctrls.requestorWriteRate::.writebacks 20467981.696327529848                       # Per-requestor bytes write to memory rate (Bytes/sec)
system.mem_ctrls.requestorReadAccesses::.cpu.inst         1050                       # Per-requestor read serviced memory accesses
system.mem_ctrls.requestorReadAccesses::.cpu.data       159265                       # Per-requestor read serviced memory accesses
system.mem_ctrls.requestorWriteAccesses::.writebacks       147217                       # Per-requestor write serviced memory accesses
system.mem_ctrls.requestorReadTotalLat::.cpu.inst     26212750                       # Per-requestor read total memory access latency
system.mem_ctrls.requestorReadTotalLat::.cpu.data   4392828750                       # Per-requestor read total memory access latency
system.mem_ctrls.requestorWriteTotalLat::.writebacks 4452028795500                       # Per-requestor write total memory access latency
[...]
system.mem_ctrls.dram.bw_total::.cpu.data     26643507                       # Total bandwidth to/from this memory (bytes/s)
system.mem_ctrls.dram.bw_total::total        51447154                       # Total bandwidth to/from this memory (bytes/s)
system.mem_ctrls.dram.readBursts               160311                       # Number of DRAM read bursts
system.mem_ctrls.dram.writeBursts              122350                       # Number of DRAM write bursts
system.mem_ctrls.dram.perBankRdBursts::0        10123                       # Per bank write bursts
system.mem_ctrls.dram.perBankRdBursts::1        10183                       # Per bank write bursts
system.mem_ctrls.dram.perBankRdBursts::2        10062                       # Per bank write bursts
system.mem_ctrls.dram.perBankRdBursts::3         9843                       # Per bank write bursts
system.mem_ctrls.dram.perBankRdBursts::4         9750                       # Per bank write bursts
system.mem_ctrls.dram.perBankRdBursts::5         9797                       # Per bank write bursts
system.mem_ctrls.dram.perBankRdBursts::6         9668                       # Per bank write bursts
system.mem_ctrls.dram.perBankRdBursts::7         9975                       # Per bank write bursts
system.mem_ctrls.dram.perBankRdBursts::8        11470                       # Per bank write bursts
system.mem_ctrls.dram.perBankRdBursts::9         9798                       # Per bank write bursts
system.mem_ctrls.dram.perBankRdBursts::10        10043                       # Per bank write bursts
system.mem_ctrls.dram.perBankRdBursts::11         9909                       # Per bank write bursts
system.mem_ctrls.dram.perBankRdBursts::12         9918                       # Per bank write bursts
system.mem_ctrls.dram.perBankRdBursts::13         9878                       # Per bank write bursts
system.mem_ctrls.dram.perBankRdBursts::14         9944                       # Per bank write bursts
system.mem_ctrls.dram.perBankRdBursts::15         9950                       # Per bank write bursts
system.mem_ctrls.dram.perBankWrBursts::0         7747                       # Per bank write bursts
system.mem_ctrls.dram.perBankWrBursts::1         7792                       # Per bank write bursts
system.mem_ctrls.dram.perBankWrBursts::2         7646                       # Per bank write bursts
system.mem_ctrls.dram.perBankWrBursts::3         7503                       # Per bank write bursts
system.mem_ctrls.dram.perBankWrBursts::4         7605                       # Per bank write bursts
system.mem_ctrls.dram.perBankWrBursts::5         7495                       # Per bank write bursts
system.mem_ctrls.dram.perBankWrBursts::6         7687                       # Per bank write bursts
system.mem_ctrls.dram.perBankWrBursts::7         7601                       # Per bank write bursts
system.mem_ctrls.dram.perBankWrBursts::8         7498                       # Per bank write bursts
system.mem_ctrls.dram.perBankWrBursts::9         7647                       # Per bank write bursts
system.mem_ctrls.dram.perBankWrBursts::10         7845                       # Per bank write bursts
system.mem_ctrls.dram.perBankWrBursts::11         7793                       # Per bank write bursts
system.mem_ctrls.dram.perBankWrBursts::12         7611                       # Per bank write bursts
system.mem_ctrls.dram.perBankWrBursts::13         7597                       # Per bank write bursts
system.mem_ctrls.dram.perBankWrBursts::14         7498                       # Per bank write bursts
system.mem_ctrls.dram.perBankWrBursts::15         7785                       # Per bank write bursts
system.mem_ctrls.dram.totQLat              1413210250                       # Total ticks spent queuing
system.mem_ctrls.dram.totBusLat             801555000                       # Total ticks spent in databus transfers
system.mem_ctrls.dram.totMemAccLat         4419041500                       # Total ticks spent from burst creation until serviced by the DRAM
system.mem_ctrls.dram.avgQLat                 8815.43                       # Average queueing delay per DRAM burst
system.mem_ctrls.dram.avgBusLat               5000.00                       # Average bus latency per DRAM burst
system.mem_ctrls.dram.avgMemAccLat           27565.43                       # Average memory access latency per DRAM burst
system.mem_ctrls.dram.readRowHits              115849                       # Number of row buffer hits during reads
system.mem_ctrls.dram.writeRowHits              89921                       # Number of row buffer hits during writes
system.mem_ctrls.dram.readRowHitRate            72.27                       # Row buffer hit rate for reads
system.mem_ctrls.dram.writeRowHitRate           73.49                       # Row buffer hit rate for writes
system.mem_ctrls.dram.bytesPerActivate::samples        76889                       # Bytes accessed per row activation
system.mem_ctrls.dram.bytesPerActivate::mean   235.274018                       # Bytes accessed per row activation
system.mem_ctrls.dram.bytesPerActivate::gmean   160.515515                       # Bytes accessed per row activation
system.mem_ctrls.dram.bytesPerActivate::stdev   228.676519                       # Bytes accessed per row activation
system.mem_ctrls.dram.bytesPerActivate::0-127        29389     38.22%     38.22% # Bytes accessed per row activation
system.mem_ctrls.dram.bytesPerActivate::128-255        12375     16.09%     54.32% # Bytes accessed per row activation
system.mem_ctrls.dram.bytesPerActivate::256-383        22673     29.49%     83.81% # Bytes accessed per row activation
system.mem_ctrls.dram.bytesPerActivate::384-511         2814      3.66%     87.47% # Bytes accessed per row activation
system.mem_ctrls.dram.bytesPerActivate::512-639         2795      3.64%     91.10% # Bytes accessed per row activation
system.mem_ctrls.dram.bytesPerActivate::640-767         1840      2.39%     93.49% # Bytes accessed per row activation
system.mem_ctrls.dram.bytesPerActivate::768-895         2083      2.71%     96.20% # Bytes accessed per row activation
system.mem_ctrls.dram.bytesPerActivate::896-1023          903      1.17%     97.38% # Bytes accessed per row activation
system.mem_ctrls.dram.bytesPerActivate::1024-1151         2017      2.62%    100.00% # Bytes accessed per row activation
system.mem_ctrls.dram.bytesPerActivate::total        76889                       # Bytes accessed per row activation
system.mem_ctrls.dram.bytesRead              10259904                       # Total number of bytes read from DRAM
system.mem_ctrls.dram.bytesWritten            7830400                       # Total number of bytes written to DRAM
system.mem_ctrls.dram.avgRdBW               53.636986                       # Average DRAM read bandwidth in MiBytes/s
system.mem_ctrls.dram.avgWrBW               40.935963                       # Average DRAM write bandwidth in MiBytes/s
system.mem_ctrls.dram.peakBW                 12800.00                       # Theoretical peak bandwidth in MiByte/s
system.mem_ctrls.dram.busUtil                    0.74                       # Data bus utilization in percentage
system.mem_ctrls.dram.busUtilRead                0.42                       # Data bus utilization in percentage for reads
system.mem_ctrls.dram.busUtilWrite               0.32                       # Data bus utilization in percentage for writes
system.mem_ctrls.dram.pageHitRate               72.80                       # Row buffer hit rate, read and write combined
system.mem_ctrls.dram.power_state.pwrStateResidencyTicks::UNDEFINED 191284126500                       # Cumulative time (in ticks) in various power states
system.mem_ctrls.dram.rank0.actEnergy       269356500                       # Energy for activate commands per rank (pJ)
system.mem_ctrls.dram.rank0.preEnergy       143158785                       # Energy for precharge commands per rank (pJ)
system.mem_ctrls.dram.rank0.readEnergy      566923140                       # Energy for read commands per rank (pJ)
system.mem_ctrls.dram.rank0.writeEnergy     318816720                       # Energy for write commands per rank (pJ)
system.mem_ctrls.dram.rank0.refreshEnergy 15099246240.000002                       # Energy for refresh commands per rank (pJ)
system.mem_ctrls.dram.rank0.actBackEnergy  44940309360                       # Energy for active background per rank (pJ)
system.mem_ctrls.dram.rank0.preBackEnergy  35608633920                       # Energy for precharge background per rank (pJ)
system.mem_ctrls.dram.rank0.actPowerDownEnergy            0                       # Energy for active power-down per rank (pJ)
system.mem_ctrls.dram.rank0.prePowerDownEnergy            0                       # Energy for precharge power-down per rank (pJ)
system.mem_ctrls.dram.rank0.selfRefreshEnergy            0                       # Energy for self refresh per rank (pJ)
system.mem_ctrls.dram.rank0.totalEnergy   96946444665                       # Total energy per rank (pJ)
system.mem_ctrls.dram.rank0.averagePower   506.819078                       # Core power per rank (mW)
system.mem_ctrls.dram.rank0.totalIdleTime            0                       # Total Idle time Per DRAM Rank
system.mem_ctrls.dram.rank0.pwrStateTime::IDLE  92107735250                       # Time in different power states
system.mem_ctrls.dram.rank0.pwrStateTime::REF   6387160000                       # Time in different power states
system.mem_ctrls.dram.rank0.pwrStateTime::SREF            0                       # Time in different power states
system.mem_ctrls.dram.rank0.pwrStateTime::PRE_PDN            0                       # Time in different power states
system.mem_ctrls.dram.rank0.pwrStateTime::ACT  92789231250                       # Time in different power states
system.mem_ctrls.dram.rank0.pwrStateTime::ACT_PDN            0                       # Time in different power states
system.mem_ctrls.dram.rank1.actEnergy       279645240                       # Energy for activate commands per rank (pJ)
system.mem_ctrls.dram.rank1.preEnergy       148634970                       # Energy for precharge commands per rank (pJ)
system.mem_ctrls.dram.rank1.readEnergy      577697400                       # Energy for read commands per rank (pJ)
system.mem_ctrls.dram.rank1.writeEnergy     319850280                       # Energy for write commands per rank (pJ)
system.mem_ctrls.dram.rank1.refreshEnergy 15099246240.000002                       # Energy for refresh commands per rank (pJ)
system.mem_ctrls.dram.rank1.actBackEnergy  45854660040                       # Energy for active background per rank (pJ)
system.mem_ctrls.dram.rank1.preBackEnergy  34838654400                       # Energy for precharge background per rank (pJ)
system.mem_ctrls.dram.rank1.actPowerDownEnergy            0                       # Energy for active power-down per rank (pJ)
system.mem_ctrls.dram.rank1.prePowerDownEnergy            0                       # Energy for precharge power-down per rank (pJ)
system.mem_ctrls.dram.rank1.selfRefreshEnergy            0                       # Energy for self refresh per rank (pJ)
system.mem_ctrls.dram.rank1.totalEnergy   97118388570                       # Total energy per rank (pJ)
system.mem_ctrls.dram.rank1.averagePower   507.717971                       # Core power per rank (mW)
system.mem_ctrls.dram.rank1.totalIdleTime            0                       # Total Idle time Per DRAM Rank
system.mem_ctrls.dram.rank1.pwrStateTime::IDLE  90098587000                       # Time in different power states
system.mem_ctrls.dram.rank1.pwrStateTime::REF   6387160000                       # Time in different power states
system.mem_ctrls.dram.rank1.pwrStateTime::SREF            0                       # Time in different power states
system.mem_ctrls.dram.rank1.pwrStateTime::PRE_PDN            0                       # Time in different power states
system.mem_ctrls.dram.rank1.pwrStateTime::ACT  94798379500                       # Time in different power states
system.mem_ctrls.dram.rank1.pwrStateTime::ACT_PDN            0                       # Time in different power states
system.mem_ctrls.power_state.pwrStateResidencyTicks::UNDEFINED 191284126500                       # Cumulative time (in ticks) in various power states
system.membus.trans_dist::ReadResp              22760                       # Transaction distribution
system.membus.trans_dist::WritebackDirty       147217                       # Transaction distribution
system.membus.trans_dist::CleanEvict             1829                       # Transaction distribution
system.membus.trans_dist::ReadExReq            137555                       # Transaction distribution
system.membus.trans_dist::ReadExResp           137555                       # Transaction distribution
system.membus.trans_dist::ReadSharedReq         22760                       # Transaction distribution
system.membus.pkt_count_system.l2.mem_side_port::system.mem_ctrls.port       469676                       # Packet count per connected requestor and responder (bytes)
system.membus.pkt_count_system.l2.mem_side_port::total       469676                       # Packet count per connected requestor and responder (bytes)
system.membus.pkt_count::total                 469676                       # Packet count per connected requestor and responder (bytes)
system.membus.pkt_size_system.l2.mem_side_port::system.mem_ctrls.port      9841024                       # Cumulative packet size per connected requestor and responder (bytes)
system.membus.pkt_size_system.l2.mem_side_port::total      9841024                       # Cumulative packet size per connected requestor and responder (bytes)
system.membus.pkt_size::total                 9841024                       # Cumulative packet size per connected requestor and responder (bytes)
system.membus.snoops                                0                       # Total snoops (count)
system.membus.snoopTraffic                          0                       # Total snoop traffic (bytes)
system.membus.snoop_fanout::samples            160315                       # Request fanout histogram
system.membus.snoop_fanout::mean                    0                       # Request fanout histogram
system.membus.snoop_fanout::stdev                   0                       # Request fanout histogram
system.membus.snoop_fanout::underflows              0      0.00%      0.00% # Request fanout histogram
system.membus.snoop_fanout::0                  160315    100.00%    100.00% # Request fanout histogram
system.membus.snoop_fanout::1                       0      0.00%    100.00% # Request fanout histogram
system.membus.snoop_fanout::overflows               0      0.00%    100.00% # Request fanout histogram
system.membus.snoop_fanout::min_value               0                       # Request fanout histogram
system.membus.snoop_fanout::max_value               0                       # Request fanout histogram
system.membus.snoop_fanout::total              160315                       # Request fanout histogram
system.membus.power_state.pwrStateResidencyTicks::UNDEFINED 191284126500                       # Cumulative time (in ticks) in various power states
system.membus.reqLayer2.occupancy           609472000                       # Layer occupancy (ticks)
system.membus.reqLayer2.utilization               0.3                       # Layer utilization (%)
system.membus.respLayer1.occupancy          532586500                       # Layer occupancy (ticks)
system.membus.respLayer1.utilization              0.3                       # Layer utilization (%)
system.tol2bus.trans_dist::ReadResp             23102                       # Transaction distribution
system.tol2bus.trans_dist::WritebackDirty       296824                       # Transaction distribution
system.tol2bus.trans_dist::WritebackClean           21                       # Transaction distribution
system.tol2bus.trans_dist::CleanEvict          160329                       # Transaction distribution
system.tol2bus.trans_dist::ReadExReq           137555                       # Transaction distribution
system.tol2bus.trans_dist::ReadExResp          137555                       # Transaction distribution
system.tol2bus.trans_dist::ReadCleanReq          1050                       # Transaction distribution
system.tol2bus.trans_dist::ReadSharedReq        22052                       # Transaction distribution
system.tol2bus.pkt_count_system.cpu.icache.mem_side_port::system.l2.cpu_side_port         2121                       # Packet count per connected requestor and responder (bytes)
system.tol2bus.pkt_count_system.cpu.dcache.mem_side_port::system.l2.cpu_side_port       470629                       # Packet count per connected requestor and responder (bytes)
system.tol2bus.pkt_count::total                472750                       # Packet count per connected requestor and responder (bytes)
system.tol2bus.pkt_size_system.cpu.icache.mem_side_port::system.l2.cpu_side_port        34272                       # Cumulative packet size per connected requestor and responder (bytes)
system.tol2bus.pkt_size_system.cpu.dcache.mem_side_port::system.l2.cpu_side_port      9894848                       # Cumulative packet size per connected requestor and responder (bytes)
system.tol2bus.pkt_size::total                9929120                       # Cumulative packet size per connected requestor and responder (bytes)
system.tol2bus.snoops                          305738                       # Total snoops (count)
system.tol2bus.snoopTraffic                   4710944                       # Total snoop traffic (bytes)
system.tol2bus.snoop_fanout::samples           466395                       # Request fanout histogram
system.tol2bus.snoop_fanout::mean            0.339839                       # Request fanout histogram
system.tol2bus.snoop_fanout::stdev           0.473655                       # Request fanout histogram
system.tol2bus.snoop_fanout::underflows             0      0.00%      0.00% # Request fanout histogram
system.tol2bus.snoop_fanout::0                 307896     66.02%     66.02% # Request fanout histogram
system.tol2bus.snoop_fanout::1                 158499     33.98%    100.00% # Request fanout histogram
system.tol2bus.snoop_fanout::2                      0      0.00%    100.00% # Request fanout histogram
system.tol2bus.snoop_fanout::3                      0      0.00%    100.00% # Request fanout histogram
system.tol2bus.snoop_fanout::4                      0      0.00%    100.00% # Request fanout histogram
system.tol2bus.snoop_fanout::overflows              0      0.00%    100.00% # Request fanout histogram
system.tol2bus.snoop_fanout::min_value              0                       # Request fanout histogram
system.tol2bus.snoop_fanout::max_value              1                       # Request fanout histogram
system.tol2bus.snoop_fanout::total             466395                       # Request fanout histogram
system.tol2bus.power_state.pwrStateResidencyTicks::UNDEFINED 191284126500                       # Cumulative time (in ticks) in various power states
system.tol2bus.reqLayer0.occupancy          230860500                       # Layer occupancy (ticks)
system.tol2bus.reqLayer0.utilization              0.1                       # Layer utilization (%)
system.tol2bus.respLayer0.occupancy           1050000                       # Layer occupancy (ticks)
system.tol2bus.respLayer0.utilization             0.0                       # Layer utilization (%)
system.tol2bus.respLayer1.occupancy         159607000                       # Layer occupancy (ticks)
system.tol2bus.respLayer1.utilization             0.1                       # Layer utilization (%)
system.voltage_domain.voltage                       1                       # Voltage in Volts

---------- End Simulation Statistics   ----------
