
---------- Begin Simulation Statistics ----------
final_tick                               190325121500                       # Number of ticks from beginning of simulation (restored from checkpoints and never reset)
host_inst_rate                                 803982                       # Simulator instruction rate (inst/s)
host_mem_usage                                 678204                       # Number of bytes of host memory used
host_op_rate                                  1481031                       # Simulator op (including micro ops) rate (op/s)
host_seconds                                   124.38                       # Real time elapsed on the host
host_tick_rate                             1530176977                       # Simulator tick rate (ticks/s)
sim_freq                                 1000000000000                       # Frequency of simulated ticks
sim_insts                                   100000001                       # Number of instructions simulated
sim_ops                                     184212218                       # Number of ops (including micro ops) simulated
sim_seconds                                  0.190325                       # Number of seconds simulated
sim_ticks                                190325121500                       # Number of ticks simulated
system.cpu.Branches                          21138365                       # Number of branches fetched
system.cpu.committedInsts                   100000001                       # Number of instructions committed
system.cpu.committedOps                     184212218                       # Number of ops (including micro ops) committed
system.cpu.idle_fraction                            0                       # Percentage of idle cycles
system.cpu.not_idle_fraction                        1                       # Percentage of non-idle cycles
system.cpu.numCycles                        380650243                       # number of cpu cycles simulated
system.cpu.numWorkItemsCompleted                    0                       # number of work items this cpu completed
system.cpu.numWorkItemsStarted                      0                       # number of work items this cpu started
system.cpu.num_busy_cycles                  380650243                       # Number of busy cycles
system.cpu.num_cc_register_reads            110470900                       # number of times the CC registers were read
system.cpu.num_cc_register_writes            56278691                       # number of times the CC registers were written
system.cpu.num_conditional_control_insts     17377044                       # number of instructions that are conditional controls
system.cpu.num_fp_alu_accesses                4198252                       # Number of float alu accesses
system.cpu.num_fp_insts                       4198252                       # number of float instructions
system.cpu.num_fp_register_reads              4465556                       # number of times the floating registers were read
system.cpu.num_fp_register_writes             2555554                       # number of times the floating registers were written
system.cpu.num_func_calls                     1777727                       # number of times a function call or return occured
system.cpu.num_idle_cycles                          0                       # Number of idle cycles
system.cpu.num_int_alu_accesses             181168224                       # Number of integer alu accesses
system.cpu.num_int_insts                    181168224                       # number of integer instructions
system.cpu.num_int_register_reads           359599209                       # number of times the integer registers were read
system.cpu.num_int_register_writes          144214147                       # number of times the integer registers were written
system.cpu.num_load_insts                    23270941                       # Number of load instructions
system.cpu.num_mem_refs                      38707146                       # number of memory refs
system.cpu.num_store_insts                   15436205                       # Number of store instructions
system.cpu.num_vec_alu_accesses                     0                       # Number of vector alu accesses
system.cpu.num_vec_insts                            0                       # number of vector instructions
system.cpu.num_vec_register_reads                   0                       # number of times the vector registers were read
system.cpu.num_vec_register_writes                  0                       # number of times the vector registers were written
system.cpu.op_class::No_OpClass               1407926      0.76%      0.76% # Class of executed instruction
system.cpu.op_class::IntAlu                 141803021     76.98%     77.74% # Class of executed instruction
system.cpu.op_class::IntMult                   451603      0.25%     77.99% # Class of executed instruction
system.cpu.op_class::IntDiv                        28      0.00%     77.99% # Class of executed instruction
system.cpu.op_class::FloatAdd                  465164      0.25%     78.24% # Class of executed instruction
system.cpu.op_class::FloatCmp                       0      0.00%     78.24% # Class of executed instruction
system.cpu.op_class::FloatCvt                       0      0.00%     78.24% # Class of executed instruction
system.cpu.op_class::FloatMult                      0      0.00%     78.24% # Class of executed instruction
system.cpu.op_class::FloatMultAcc                   0      0.00%     78.24% # Class of executed instruction
system.cpu.op_class::FloatDiv                       0      0.00%     78.24% # Class of executed instruction
system.cpu.op_class::FloatMisc                      0      0.00%     78.24% # Class of executed instruction
system.cpu.op_class::FloatSqrt                      0      0.00%     78.24% # Class of executed instruction
system.cpu.op_class::SimdAdd                        0      0.00%     78.24% # Class of executed instruction
system.cpu.op_class::SimdAddAcc                     0      0.00%     78.24% # Class of executed instruction
system.cpu.op_class::SimdAlu                    95520      0.05%     78.29% # Class of executed instruction
system.cpu.op_class::SimdCmp                        0      0.00%     78.29% # Class of executed instruction
system.cpu.op_class::SimdCvt                   215010      0.12%     78.41% # Class of executed instruction
system.cpu.op_class::SimdMisc                 1068136      0.58%     78.99% # Class of executed instruction
system.cpu.op_class::SimdMult                       0      0.00%     78.99% # Class of executed instruction
system.cpu.op_class::SimdMultAcc                    0      0.00%     78.99% # Class of executed instruction
system.cpu.op_class::SimdShift                      0      0.00%     78.99% # Class of executed instruction
system.cpu.op_class::SimdShiftAcc                   0      0.00%     78.99% # Class of executed instruction
system.cpu.op_class::SimdDiv                        0      0.00%     78.99% # Class of executed instruction
system.cpu.op_class::SimdSqrt                       0      0.00%     78.99% # Class of executed instruction
system.cpu.op_class::SimdFloatAdd                   0      0.00%     78.99% # Class of executed instruction
system.cpu.op_class::SimdFloatAlu                   0      0.00%     78.99% # Class of executed instruction
system.cpu.op_class::SimdFloatCmp                   0      0.00%     78.99% # Class of executed instruction
system.cpu.op_class::SimdFloatCvt                   0      0.00%     78.99% # Class of executed instruction
system.cpu.op_class::SimdFloatDiv                   0      0.00%     78.99% # Class of executed instruction
system.cpu.op_class::SimdFloatMisc                  0      0.00%     78.99% # Class of executed instruction
system.cpu.op_class::SimdFloatMult                  0      0.00%     78.99% # Class of executed instruction
system.cpu.op_class::SimdFloatMultAcc               0      0.00%     78.99% # Class of executed instruction
system.cpu.op_class::SimdFloatSqrt                  0      0.00%     78.99% # Class of executed instruction
system.cpu.op_class::SimdReduceAdd                  0      0.00%     78.99% # Class of executed instruction
system.cpu.op_class::SimdReduceAlu                  0      0.00%     78.99% # Class of executed instruction
system.cpu.op_class::SimdReduceCmp                  0      0.00%     78.99% # Class of executed instruction
system.cpu.op_class::SimdFloatReduceAdd             0      0.00%     78.99% # Class of executed instruction
system.cpu.op_class::SimdFloatReduceCmp             0      0.00%     78.99% # Class of executed instruction
system.cpu.op_class::SimdAes                        0      0.00%     78.99% # Class of executed instruction
system.cpu.op_class::SimdAesMix                     0      0.00%     78.99% # Class of executed instruction
system.cpu.op_class::SimdSha1Hash                   0      0.00%     78.99% # Class of executed instruction
system.cpu.op_class::SimdSha1Hash2                  0      0.00%     78.99% # Class of executed instruction
system.cpu.op_class::SimdSha256Hash                 0      0.00%     78.99% # Class of executed instruction
system.cpu.op_class::SimdSha256Hash2                0      0.00%     78.99% # Class of executed instruction
system.cpu.op_class::SimdShaSigma2                  0      0.00%     78.99% # Class of executed instruction
system.cpu.op_class::SimdShaSigma3                  0      0.00%     78.99% # Class of executed instruction
system.cpu.op_class::SimdPredAlu                    0      0.00%     78.99% # Class of executed instruction
system.cpu.op_class::MemRead                 22624662     12.28%     91.27% # Class of executed instruction
system.cpu.op_class::MemWrite                14008515      7.60%     98.87% # Class of executed instruction
system.cpu.op_class::FloatMemRead              646279      0.35%     99.22% # Class of executed instruction
system.cpu.op_class::FloatMemWrite            1427690      0.78%    100.00% # Class of executed instruction
system.cpu.op_class::IprAccess                      0      0.00%    100.00% # Class of executed instruction
system.cpu.op_class::InstPrefetch                   0      0.00%    100.00% # Class of executed instruction
system.cpu.op_class::total                  184213554                       # Class of executed instruction
system.cpu.workload.numSyscalls                    93                       # Number of system calls
system.membus.snoop_filter.hit_multi_requests            0                       # Number of requests hitting in the snoop filter with multiple (>1) holders of the requested data.
system.membus.snoop_filter.hit_multi_snoops            0                       # Number of snoops hitting in the snoop filter with multiple (>1) holders of the requested data.
system.membus.snoop_filter.hit_single_requests        83743                       # Number of requests hitting in the snoop filter with a single holder of the requested data.
system.membus.snoop_filter.hit_single_snoops            0                       # Number of snoops hitting in the snoop filter with a single holder of the requested data.
system.membus.snoop_filter.tot_requests        236099                       # Total number of requests made to the snoop filter.
system.membus.snoop_filter.tot_snoops               0                       # Total number of snoops made to the snoop filter.
system.tol2bus.snoop_filter.hit_multi_requests            0                       # Number of requests hitting in the snoop filter with multiple (>1) holders of the requested data.
system.tol2bus.snoop_filter.hit_multi_snoops            0                       # Number of snoops hitting in the snoop filter with multiple (>1) holders of the requested data.
system.tol2bus.snoop_filter.hit_single_requests        85955                       # Number of requests hitting in the snoop filter with a single holder of the requested data.
system.tol2bus.snoop_filter.hit_single_snoops       150464                       # Number of snoops hitting in the snoop filter with a single holder of the requested data.
system.tol2bus.snoop_filter.tot_requests       238475                       # Total number of requests made to the snoop filter.
system.tol2bus.snoop_filter.tot_snoops         150464                       # Total number of snoops made to the snoop filter.
system.clk_domain.clock                          1000                       # Clock period in ticks
system.cpu.dcache.demand_hits::.cpu.data     38586747                       # number of demand (read+write) hits
system.cpu.dcache.demand_hits::total         38586747                       # number of demand (read+write) hits
system.cpu.dcache.overall_hits::.cpu.data     38586747                       # number of overall hits
system.cpu.dcache.overall_hits::total        38586747                       # number of overall hits
system.cpu.dcache.demand_misses::.cpu.data       151470                       # number of demand (read+write) misses
system.cpu.dcache.demand_misses::total         151470                       # number of demand (read+write) misses
system.cpu.dcache.overall_misses::.cpu.data       151470                       # number of overall misses
system.cpu.dcache.overall_misses::total        151470                       # number of overall misses
system.cpu.dcache.demand_miss_latency::.cpu.data  11927661500                       # number of demand (read+write) miss cycles
system.cpu.dcache.demand_miss_latency::total  11927661500                       # number of demand (read+write) miss cycles
system.cpu.dcache.overall_miss_latency::.cpu.data  11927661500                       # number of overall miss cycles
system.cpu.dcache.overall_miss_latency::total  11927661500                       # number of overall miss cycles
system.cpu.dcache.demand_accesses::.cpu.data     38738217                       # number of demand (read+write) accesses
system.cpu.dcache.demand_accesses::total     38738217                       # number of demand (read+write) accesses
system.cpu.dcache.overall_accesses::.cpu.data     38738217                       # number of overall (read+write) accesses
system.cpu.dcache.overall_accesses::total     38738217                       # number of overall (read+write) accesses
system.cpu.dcache.demand_miss_rate::.cpu.data     0.003910                       # miss rate for demand accesses
system.cpu.dcache.demand_miss_rate::total     0.003910                       # miss rate for demand accesses
system.cpu.dcache.overall_miss_rate::.cpu.data     0.003910                       # miss rate for overall accesses
system.cpu.dcache.overall_miss_rate::total     0.003910                       # miss rate for overall accesses
system.cpu.dcache.demand_avg_miss_latency::.cpu.data 78746.032218                       # average overall miss latency
system.cpu.dcache.demand_avg_miss_latency::total 78746.032218                       # average overall miss latency
system.cpu.dcache.overall_avg_miss_latency::.cpu.data 78746.032218                       # average overall miss latency
system.cpu.dcache.overall_avg_miss_latency::total 78746.032218                       # average overall miss latency
system.cpu.dcache.blocked_cycles::no_mshrs            0                       # number of cycles access was blocked
system.cpu.dcache.blocked_cycles::no_targets            0                       # number of cycles access was blocked
system.cpu.dcache.blocked::no_mshrs                 0                       # number of cycles access was blocked
system.cpu.dcache.blocked::no_targets               0                       # number of cycles access was blocked
system.cpu.dcache.avg_blocked_cycles::no_mshrs          nan                       # average number of cycles each access was blocked
system.cpu.dcache.avg_blocked_cycles::no_targets          nan                       # average number of cycles each access was blocked
system.cpu.dcache.writebacks::.writebacks        85802                       # number of writebacks
system.cpu.dcache.writebacks::total             85802                       # number of writebacks
system.cpu.dcache.demand_mshr_misses::.cpu.data       151470                       # number of demand (read+write) MSHR misses
system.cpu.dcache.demand_mshr_misses::total       151470                       # number of demand (read+write) MSHR misses
system.cpu.dcache.overall_mshr_misses::.cpu.data       151470                       # number of overall MSHR misses
system.cpu.dcache.overall_mshr_misses::total       151470                       # number of overall MSHR misses
system.cpu.dcache.demand_mshr_miss_latency::.cpu.data  11776191500                       # number of demand (read+write) MSHR miss cycles
system.cpu.dcache.demand_mshr_miss_latency::total  11776191500                       # number of demand (read+write) MSHR miss cycles
system.cpu.dcache.overall_mshr_miss_latency::.cpu.data  11776191500                       # number of overall MSHR miss cycles
system.cpu.dcache.overall_mshr_miss_latency::total  11776191500                       # number of overall MSHR miss cycles
system.cpu.dcache.demand_mshr_miss_rate::.cpu.data     0.003910                       # mshr miss rate for demand accesses
system.cpu.dcache.demand_mshr_miss_rate::total     0.003910                       # mshr miss rate for demand accesses
system.cpu.dcache.overall_mshr_miss_rate::.cpu.data     0.003910                       # mshr miss rate for overall accesses
system.cpu.dcache.overall_mshr_miss_rate::total     0.003910                       # mshr miss rate for overall accesses
system.cpu.dcache.demand_avg_mshr_miss_latency::.cpu.data 77746.032218                       # average overall mshr miss latency
system.cpu.dcache.demand_avg_mshr_miss_latency::total 77746.032218                       # average overall mshr miss latency
system.cpu.dcache.overall_avg_mshr_miss_latency::.cpu.data 77746.032218                       # average overall mshr miss latency
system.cpu.dcache.overall_avg_mshr_miss_latency::total 77746.032218                       # average overall mshr miss latency
system.cpu.dcache.replacements                  85934                       # number of replacements
system.cpu.dcache.ReadReq_hits::.cpu.data     23289333                       # number of ReadReq hits
system.cpu.dcache.ReadReq_hits::total        23289333                       # number of ReadReq hits
system.cpu.dcache.ReadReq_misses::.cpu.data        13915                       # number of ReadReq misses
system.cpu.dcache.ReadReq_misses::total         13915                       # number of ReadReq misses
system.cpu.dcache.ReadReq_miss_latency::.cpu.data   1130651000                       # number of ReadReq miss cycles
system.cpu.dcache.ReadReq_miss_latency::total   1130651000                       # number of ReadReq miss cycles
system.cpu.dcache.ReadReq_accesses::.cpu.data     23303248                       # number of ReadReq accesses(hits+misses)
system.cpu.dcache.ReadReq_accesses::total     23303248                       # number of ReadReq accesses(hits+misses)
system.cpu.dcache.ReadReq_miss_rate::.cpu.data     0.000597                       # miss rate for ReadReq accesses
system.cpu.dcache.ReadReq_miss_rate::total     0.000597                       # miss rate for ReadReq accesses
system.cpu.dcache.ReadReq_avg_miss_latency::.cpu.data 81254.114265                       # average ReadReq miss latency
system.cpu.dcache.ReadReq_avg_miss_latency::total 81254.114265                       # average ReadReq miss latency
system.cpu.dcache.ReadReq_mshr_misses::.cpu.data        13915                       # number of ReadReq MSHR misses
system.cpu.dcache.ReadReq_mshr_misses::total        13915                       # number of ReadReq MSHR misses
system.cpu.dcache.ReadReq_mshr_miss_latency::.cpu.data   1116736000                       # number of ReadReq MSHR miss cycles
system.cpu.dcache.ReadReq_mshr_miss_latency::total   1116736000                       # number of ReadReq MSHR miss cycles
system.cpu.dcache.ReadReq_mshr_miss_rate::.cpu.data     0.000597                       # mshr miss rate for ReadReq accesses
system.cpu.dcache.ReadReq_mshr_miss_rate::total     0.000597                       # mshr miss rate for ReadReq accesses
system.cpu.dcache.ReadReq_avg_mshr_miss_latency::.cpu.data 80254.114265                       # average ReadReq mshr miss latency
system.cpu.dcache.ReadReq_avg_mshr_miss_latency::total 80254.114265                       # average ReadReq mshr miss latency
system.cpu.dcache.WriteReq_hits::.cpu.data     15297414                       # number of WriteReq hits
system.cpu.dcache.WriteReq_hits::total       15297414                       # number of WriteReq hits
system.cpu.dcache.WriteReq_misses::.cpu.data       137555                       # number of WriteReq misses
system.cpu.dcache.WriteReq_misses::total       137555                       # number of WriteReq misses
system.cpu.dcache.WriteReq_miss_latency::.cpu.data  10797010500                       # number of WriteReq miss cycles
system.cpu.dcache.WriteReq_miss_latency::total  10797010500                       # number of WriteReq miss cycles
system.cpu.dcache.WriteReq_accesses::.cpu.data     15434969                       # number of WriteReq accesses(hits+misses)
system.cpu.dcache.WriteReq_accesses::total     15434969                       # number of WriteReq accesses(hits+misses)
system.cpu.dcache.WriteReq_miss_rate::.cpu.data     0.008912                       # miss rate for WriteReq accesses
system.cpu.dcache.WriteReq_miss_rate::total     0.008912                       # miss rate for WriteReq accesses
system.cpu.dcache.WriteReq_avg_miss_latency::.cpu.data 78492.315801                       # average WriteReq miss latency
system.cpu.dcache.WriteReq_avg_miss_latency::total 78492.315801                       # average WriteReq miss latency
system.cpu.dcache.WriteReq_mshr_misses::.cpu.data       137555                       # number of WriteReq MSHR misses
system.cpu.dcache.WriteReq_mshr_misses::total       137555                       # number of WriteReq MSHR misses
system.cpu.dcache.WriteReq_mshr_miss_latency::.cpu.data  10659455500                       # number of WriteReq MSHR miss cycles
system.cpu.dcache.WriteReq_mshr_miss_latency::total  10659455500                       # number of WriteReq MSHR miss cycles
system.cpu.dcache.WriteReq_mshr_miss_rate::.cpu.data     0.008912                       # mshr miss rate for WriteReq accesses
system.cpu.dcache.WriteReq_mshr_miss_rate::total     0.008912                       # mshr miss rate for WriteReq accesses
system.cpu.dcache.WriteReq_avg_mshr_miss_latency::.cpu.data 77492.315801                       # average WriteReq mshr miss latency
system.cpu.dcache.WriteReq_avg_mshr_miss_latency::total 77492.315801                       # average WriteReq mshr miss latency
system.cpu.dcache.power_state.pwrStateResidencyTicks::UNDEFINED 190325121500                       # Cumulative time (in ticks) in various power states
system.cpu.dcache.tags.tagsinuse         60208.834964                       # Cycle average of tags in use
system.cpu.dcache.tags.total_refs            38738217                       # Total number of references to valid blocks.
system.cpu.dcache.tags.sampled_refs            151470                       # Sample count of references to valid blocks.
system.cpu.dcache.tags.avg_refs            255.748445                       # Average number of references to valid blocks.
system.cpu.dcache.tags.warmup_cycle            177500                       # Cycle when the warmup percentage was hit.
system.cpu.dcache.tags.occ_blocks::.cpu.data 60208.834964                       # Average occupied blocks per requestor
system.cpu.dcache.tags.occ_percent::.cpu.data     0.918714                       # Average percentage of cache occupancy
system.cpu.dcache.tags.occ_percent::total     0.918714                       # Average percentage of cache occupancy
system.cpu.dcache.tags.occ_task_id_blocks::1024        65536                       # Occupied blocks per task id
system.cpu.dcache.tags.age_task_id_blocks_1024::0            5                       # Occupied blocks per task id
system.cpu.dcache.tags.age_task_id_blocks_1024::1           51                       # Occupied blocks per task id
system.cpu.dcache.tags.age_task_id_blocks_1024::2          513                       # Occupied blocks per task id
system.cpu.dcache.tags.age_task_id_blocks_1024::3         5245                       # Occupied blocks per task id
system.cpu.dcache.tags.age_task_id_blocks_1024::4        59722                       # Occupied blocks per task id
system.cpu.dcache.tags.occ_task_id_percent::1024            1                       # Percentage of cache occupancy per task id
system.cpu.dcache.tags.tag_accesses          77627904                       # Number of tag accesses
system.cpu.dcache.tags.data_accesses         77627904                       # Number of data accesses
system.cpu.dcache.tags.power_state.pwrStateResidencyTicks::UNDEFINED 190325121500                       # Cumulative time (in ticks) in various power states
system.cpu.dtb.rdAccesses                    23303250                       # TLB accesses on read requests
system.cpu.dtb.wrAccesses                    15436210                       # TLB accesses on write requests
system.cpu.dtb.rdMisses                         21891                       # TLB misses on read requests
system.cpu.dtb.wrMisses                          2489                       # TLB misses on write requests
system.cpu.dtb.walker.power_state.pwrStateResidencyTicks::UNDEFINED 190325121500                       # Cumulative time (in ticks) in various power states
system.cpu.dtb_walker_cache.blocked_cycles::no_mshrs            0                       # number of cycles access was blocked
system.cpu.dtb_walker_cache.blocked_cycles::no_targets            0                       # number of cycles access was blocked
system.cpu.dtb_walker_cache.blocked::no_mshrs            0                       # number of cycles access was blocked
system.cpu.dtb_walker_cache.blocked::no_targets            0                       # number of cycles access was blocked
system.cpu.dtb_walker_cache.avg_blocked_cycles::no_mshrs          nan                       # average number of cycles each access was blocked
system.cpu.dtb_walker_cache.avg_blocked_cycles::no_targets          nan                       # average number of cycles each access was blocked
system.cpu.dtb_walker_cache.replacements            0                       # number of replacements
system.cpu.dtb_walker_cache.power_state.pwrStateResidencyTicks::UNDEFINED 190325121500                       # Cumulative time (in ticks) in various power states
system.cpu.dtb_walker_cache.tags.tagsinuse            0                       # Cycle average of tags in use
system.cpu.dtb_walker_cache.tags.total_refs            0                       # Total number of references to valid blocks.
system.cpu.dtb_walker_cache.tags.sampled_refs            0                       # Sample count of references to valid blocks.
system.cpu.dtb_walker_cache.tags.avg_refs          nan                       # Average number of references to valid blocks.
system.cpu.dtb_walker_cache.tags.warmup_cycle            0                       # Cycle when the warmup percentage was hit.
system.cpu.dtb_walker_cache.tags.tag_accesses            0                       # Number of tag accesses
system.cpu.dtb_walker_cache.tags.data_accesses            0                       # Number of data accesses
system.cpu.dtb_walker_cache.tags.power_state.pwrStateResidencyTicks::UNDEFINED 190325121500                       # Cumulative time (in ticks) in various power states
system.cpu.icache.demand_hits::.cpu.inst    139744651                       # number of demand (read+write) hits
system.cpu.icache.demand_hits::total        139744651                       # number of demand (read+write) hits
system.cpu.icache.overall_hits::.cpu.inst    139744651                       # number of overall hits
system.cpu.icache.overall_hits::total       139744651                       # number of overall hits
system.cpu.icache.demand_misses::.cpu.inst         1050                       # number of demand (read+write) misses
system.cpu.icache.demand_misses::total           1050                       # number of demand (read+write) misses
system.cpu.icache.overall_misses::.cpu.inst         1050                       # number of overall misses
system.cpu.icache.overall_misses::total          1050                       # number of overall misses
system.cpu.icache.demand_miss_latency::.cpu.inst     82286000                       # number of demand (read+write) miss cycles
system.cpu.icache.demand_miss_latency::total     82286000                       # number of demand (read+write) miss cycles
system.cpu.icache.overall_miss_latency::.cpu.inst     82286000                       # number of overall miss cycles
system.cpu.icache.overall_miss_latency::total     82286000                       # number of overall miss cycles
system.cpu.icache.demand_accesses::.cpu.inst    139745701                       # number of demand (read+write) accesses
system.cpu.icache.demand_accesses::total    139745701                       # number of demand (read+write) accesses
system.cpu.icache.overall_accesses::.cpu.inst    139745701                       # number of overall (read+write) accesses
system.cpu.icache.overall_accesses::total    139745701                       # number of overall (read+write) accesses
system.cpu.icache.demand_miss_rate::.cpu.inst     0.000008                       # miss rate for demand accesses
system.cpu.icache.demand_miss_rate::total     0.000008                       # miss rate for demand accesses
system.cpu.icache.overall_miss_rate::.cpu.inst     0.000008                       # miss rate for overall accesses
system.cpu.icache.overall_miss_rate::total     0.000008                       # miss rate for overall accesses
system.cpu.icache.demand_avg_miss_latency::.cpu.inst 78367.619048                       # average overall miss latency
system.cpu.icache.demand_avg_miss_latency::total 78367.619048                       # average overall miss latency
system.cpu.icache.overall_avg_miss_latency::.cpu.inst 78367.619048                       # average overall miss latency
system.cpu.icache.overall_avg_miss_latency::total 78367.619048                       # average overall miss latency
system.cpu.icache.blocked_cycles::no_mshrs            0                       # number of cycles access was blocked
system.cpu.icache.blocked_cycles::no_targets            0                       # number of cycles access was blocked
system.cpu.icache.blocked::no_mshrs                 0                       # number of cycles access was blocked
system.cpu.icache.blocked::no_targets               0                       # number of cycles access was blocked
system.cpu.icache.avg_blocked_cycles::no_mshrs          nan                       # average number of cycles each access was blocked
system.cpu.icache.avg_blocked_cycles::no_targets          nan                       # average number of cycles each access was blocked
system.cpu.icache.writebacks::.writebacks           21                       # number of writebacks
system.cpu.icache.writebacks::total                21                       # number of writebacks
system.cpu.icache.demand_mshr_misses::.cpu.inst         1050                       # number of demand (read+write) MSHR misses
system.cpu.icache.demand_mshr_misses::total         1050                       # number of demand (read+write) MSHR misses
system.cpu.icache.overall_mshr_misses::.cpu.inst         1050                       # number of overall MSHR misses
system.cpu.icache.overall_mshr_misses::total         1050                       # number of overall MSHR misses
system.cpu.icache.demand_mshr_miss_latency::.cpu.inst     81236000                       # number of demand (read+write) MSHR miss cycles
system.cpu.icache.demand_mshr_miss_latency::total     81236000                       # number of demand (read+write) MSHR miss cycles
system.cpu.icache.overall_mshr_miss_latency::.cpu.inst     81236000                       # number of overall MSHR miss cycles
system.cpu.icache.overall_mshr_miss_latency::total     81236000                       # number of overall MSHR miss cycles
system.cpu.icache.demand_mshr_miss_rate::.cpu.inst     0.000008                       # mshr miss rate for demand accesses
system.cpu.icache.demand_mshr_miss_rate::total     0.000008                       # mshr miss rate for demand accesses
system.cpu.icache.overall_mshr_miss_rate::.cpu.inst     0.000008                       # mshr miss rate for overall accesses
system.cpu.icache.overall_mshr_miss_rate::total     0.000008                       # mshr miss rate for overall accesses
system.cpu.icache.demand_avg_mshr_miss_latency::.cpu.inst 77367.619048                       # average overall mshr miss latency
system.cpu.icache.demand_avg_mshr_miss_latency::total 77367.619048                       # average overall mshr miss latency
system.cpu.icache.overall_avg_mshr_miss_latency::.cpu.inst 77367.619048                       # average overall mshr miss latency
system.cpu.icache.overall_avg_mshr_miss_latency::total 77367.619048                       # average overall mshr miss latency
system.cpu.icache.replacements                     21                       # number of replacements
system.cpu.icache.ReadReq_hits::.cpu.inst    139744651                       # number of ReadReq hits
system.cpu.icache.ReadReq_hits::total       139744651                       # number of ReadReq hits
system.cpu.icache.ReadReq_misses::.cpu.inst         1050                       # number of ReadReq misses
system.cpu.icache.ReadReq_misses::total          1050                       # number of ReadReq misses
system.cpu.icache.ReadReq_miss_latency::.cpu.inst     82286000                       # number of ReadReq miss cycles
system.cpu.icache.ReadReq_miss_latency::total     82286000                       # number of ReadReq miss cycles
system.cpu.icache.ReadReq_accesses::.cpu.inst    139745701                       # number of ReadReq accesses(hits+misses)
system.cpu.icache.ReadReq_accesses::total    139745701                       # number of ReadReq accesses(hits+misses)
system.cpu.icache.ReadReq_miss_rate::.cpu.inst     0.000008                       # miss rate for ReadReq accesses
system.cpu.icache.ReadReq_miss_rate::total     0.000008                       # miss rate for ReadReq accesses
system.cpu.icache.ReadReq_avg_miss_latency::.cpu.inst 78367.619048                       # average ReadReq miss latency
system.cpu.icache.ReadReq_avg_miss_latency::total 78367.619048                       # average ReadReq miss latency
system.cpu.icache.ReadReq_mshr_misses::.cpu.inst         1050                       # number of ReadReq MSHR misses
system.cpu.icache.ReadReq_mshr_misses::total         1050                       # number of ReadReq MSHR misses
system.cpu.icache.ReadReq_mshr_miss_latency::.cpu.inst     81236000                       # number of ReadReq MSHR miss cycles
system.cpu.icache.ReadReq_mshr_miss_latency::total     81236000                       # number of ReadReq MSHR miss cycles
system.cpu.icache.ReadReq_mshr_miss_rate::.cpu.inst     0.000008                       # mshr miss rate for ReadReq accesses
system.cpu.icache.ReadReq_mshr_miss_rate::total     0.000008                       # mshr miss rate for ReadReq accesses
system.cpu.icache.ReadReq_avg_mshr_miss_latency::.cpu.inst 77367.619048                       # average ReadReq mshr miss latency
system.cpu.icache.ReadReq_avg_mshr_miss_latency::total 77367.619048                       # average ReadReq mshr miss latency
system.cpu.icache.power_state.pwrStateResidencyTicks::UNDEFINED 190325121500                       # Cumulative time (in ticks) in various power states
system.cpu.icache.tags.tagsinuse          1024.480533                       # Cycle average of tags in use
system.cpu.icache.tags.total_refs           139745701                       # Total number of references to valid blocks.
system.cpu.icache.tags.sampled_refs              1050                       # Sample count of references to valid blocks.
system.cpu.icache.tags.avg_refs          133091.143810                       # Average number of references to valid blocks.
system.cpu.icache.tags.warmup_cycle             87500                       # Cycle when the warmup percentage was hit.
system.cpu.icache.tags.occ_blocks::.cpu.inst  1024.480533                       # Average occupied blocks per requestor
system.cpu.icache.tags.occ_percent::.cpu.inst     0.250117                       # Average percentage of cache occupancy
system.cpu.icache.tags.occ_percent::total     0.250117                       # Average percentage of cache occupancy
system.cpu.icache.tags.occ_task_id_blocks::1024         1029                       # Occupied blocks per task id
system.cpu.icache.tags.age_task_id_blocks_1024::4         1029                       # Occupied blocks per task id
system.cpu.icache.tags.occ_task_id_percent::1024     0.251221                       # Percentage of cache occupancy per task id
system.cpu.icache.tags.tag_accesses         279492452                       # Number of tag accesses
system.cpu.icache.tags.data_accesses        279492452                       # Number of data accesses
system.cpu.icache.tags.power_state.pwrStateResidencyTicks::UNDEFINED 190325121500                       # Cumulative time (in ticks) in various power states
system.cpu.interrupts.clk_domain.clock           8000                       # Clock period in ticks
system.cpu.itb.rdAccesses                           0                       # TLB accesses on read requests
system.cpu.itb.wrAccesses                   139745701                       # TLB accesses on write requests
system.cpu.itb.rdMisses                             0                       # TLB misses on read requests
system.cpu.itb.wrMisses                            51                       # TLB misses on write requests
system.cpu.itb.walker.power_state.pwrStateResidencyTicks::UNDEFINED 190325121500                       # Cumulative time (in ticks) in various power states
system.cpu.itb_walker_cache.blocked_cycles::no_mshrs            0                       # number of cycles access was blocked
system.cpu.itb_walker_cache.blocked_cycles::no_targets            0                       # number of cycles access was blocked
system.cpu.itb_walker_cache.blocked::no_mshrs            0                       # number of cycles access was blocked
system.cpu.itb_walker_cache.blocked::no_targets            0                       # number of cycles access was blocked
system.cpu.itb_walker_cache.avg_blocked_cycles::no_mshrs          nan                       # average number of cycles each access was blocked
system.cpu.itb_walker_cache.avg_blocked_cycles::no_targets          nan                       # average number of cycles each access was blocked
system.cpu.itb_walker_cache.replacements            0                       # number of replacements
system.cpu.itb_walker_cache.power_state.pwrStateResidencyTicks::UNDEFINED 190325121500                       # Cumulative time (in ticks) in various power states
system.cpu.itb_walker_cache.tags.tagsinuse            0                       # Cycle average of tags in use
system.cpu.itb_walker_cache.tags.total_refs            0                       # Total number of references to valid blocks.
system.cpu.itb_walker_cache.tags.sampled_refs            0                       # Sample count of references to valid blocks.
system.cpu.itb_walker_cache.tags.avg_refs          nan                       # Average number of references to valid blocks.
system.cpu.itb_walker_cache.tags.warmup_cycle            0                       # Cycle when the warmup percentage was hit.
system.cpu.itb_walker_cache.tags.tag_accesses            0                       # Number of tag accesses
system.cpu.itb_walker_cache.tags.data_accesses            0                       # Number of data accesses
system.cpu.itb_walker_cache.tags.power_state.pwrStateResidencyTicks::UNDEFINED 190325121500                       # Cumulative time (in ticks) in various power states
system.cpu.power_state.pwrStateResidencyTicks::ON 190325121500                       # Cumulative time (in ticks) in various power states
system.cpu.thread_0.numInsts                        0                       # Number of Instructions committed
system.cpu.thread_0.numOps                          0                       # Number of Ops committed
system.cpu.thread_0.numMemRefs                      0                       # Number of Memory References
system.cpu_clk_domain.clock                       500                       # Clock period in ticks
system.cpu_voltage_domain.voltage                   1                       # Voltage in Volts
system.l2.demand_hits::.cpu.data                  164                       # number of demand (read+write) hits
system.l2.demand_hits::total                      164                       # number of demand (read+write) hits
system.l2.overall_hits::.cpu.data                 164                       # number of overall hits
system.l2.overall_hits::total                     164                       # number of overall hits
system.l2.demand_misses::.cpu.inst               1050                       # number of demand (read+write) misses
system.l2.demand_misses::.cpu.data             151306                       # number of demand (read+write) misses
system.l2.demand_misses::total                 152356                       # number of demand (read+write) misses
system.l2.overall_misses::.cpu.inst              1050                       # number of overall misses
system.l2.overall_misses::.cpu.data            151306                       # number of overall misses
system.l2.overall_misses::total                152356                       # number of overall misses
system.l2.demand_miss_latency::.cpu.inst     79661000                       # number of demand (read+write) miss cycles
system.l2.demand_miss_latency::.cpu.data  11547264500                       # number of demand (read+write) miss cycles
system.l2.demand_miss_latency::total      11626925500                       # number of demand (read+write) miss cycles
system.l2.overall_miss_latency::.cpu.inst     79661000                       # number of overall miss cycles
system.l2.overall_miss_latency::.cpu.data  11547264500                       # number of overall miss cycles
system.l2.overall_miss_latency::total     11626925500                       # number of overall miss cycles
system.l2.demand_accesses::.cpu.inst             1050                       # number of demand (read+write) accesses
system.l2.demand_accesses::.cpu.data           151470                       # number of demand (read+write) accesses
system.l2.demand_accesses::total               152520                       # number of demand (read+write) accesses
system.l2.overall_accesses::.cpu.inst            1050                       # number of overall (read+write) accesses
system.l2.overall_accesses::.cpu.data          151470                       # number of overall (read+write) accesses
system.l2.overall_accesses::total              152520                       # number of overall (read+write) accesses
system.l2.demand_miss_rate::.cpu.inst               1                       # miss rate for demand accesses
system.l2.demand_miss_rate::.cpu.data        0.998917                       # miss rate for demand accesses
system.l2.demand_miss_rate::total            0.998925                       # miss rate for demand accesses
system.l2.overall_miss_rate::.cpu.inst              1                       # miss rate for overall accesses
system.l2.overall_miss_rate::.cpu.data       0.998917                       # miss rate for overall accesses
system.l2.overall_miss_rate::total           0.998925                       # miss rate for overall accesses
system.l2.demand_avg_miss_latency::.cpu.inst 75867.619048                       # average overall miss latency
system.l2.demand_avg_miss_latency::.cpu.data 76317.294093                       # average overall miss latency
system.l2.demand_avg_miss_latency::total 76314.195043                       # average overall miss latency
system.l2.overall_avg_miss_latency::.cpu.inst 75867.619048                       # average overall miss latency
system.l2.overall_avg_miss_latency::.cpu.data 76317.294093                       # average overall miss latency
system.l2.overall_avg_miss_latency::total 76314.195043                       # average overall miss latency
system.l2.blocked_cycles::no_mshrs                  0                       # number of cycles access was blocked
system.l2.blocked_cycles::no_targets                0                       # number of cycles access was blocked
system.l2.blocked::no_mshrs                         0                       # number of cycles access was blocked
system.l2.blocked::no_targets                       0                       # number of cycles access was blocked
system.l2.avg_blocked_cycles::no_mshrs            nan                       # average number of cycles each access was blocked
system.l2.avg_blocked_cycles::no_targets          nan                       # average number of cycles each access was blocked
system.l2.writebacks::.writebacks               83590                       # number of writebacks
system.l2.writebacks::total                     83590                       # number of writebacks
system.l2.demand_mshr_misses::.cpu.inst          1050                       # number of demand (read+write) MSHR misses
system.l2.demand_mshr_misses::.cpu.data        151306                       # number of demand (read+write) MSHR misses
system.l2.demand_mshr_misses::total            152356                       # number of demand (read+write) MSHR misses
system.l2.overall_mshr_misses::.cpu.inst         1050                       # number of overall MSHR misses
system.l2.overall_mshr_misses::.cpu.data       151306                       # number of overall MSHR misses
system.l2.overall_mshr_misses::total           152356                       # number of overall MSHR misses
system.l2.demand_mshr_miss_latency::.cpu.inst     69161000                       # number of demand (read+write) MSHR miss cycles
system.l2.demand_mshr_miss_latency::.cpu.data  10034204500                       # number of demand (read+write) MSHR miss cycles
system.l2.demand_mshr_miss_latency::total  10103365500                       # number of demand (read+write) MSHR miss cycles
system.l2.overall_mshr_miss_latency::.cpu.inst     69161000                       # number of overall MSHR miss cycles
system.l2.overall_mshr_miss_latency::.cpu.data  10034204500                       # number of overall MSHR miss cycles
system.l2.overall_mshr_miss_latency::total  10103365500                       # number of overall MSHR miss cycles
system.l2.demand_mshr_miss_rate::.cpu.inst            1                       # mshr miss rate for demand accesses
system.l2.demand_mshr_miss_rate::.cpu.data     0.998917                       # mshr miss rate for demand accesses
system.l2.demand_mshr_miss_rate::total       0.998925                       # mshr miss rate for demand accesses
system.l2.overall_mshr_miss_rate::.cpu.inst            1                       # mshr miss rate for overall accesses
system.l2.overall_mshr_miss_rate::.cpu.data     0.998917                       # mshr miss rate for overall accesses
system.l2.overall_mshr_miss_rate::total      0.998925                       # mshr miss rate for overall accesses
system.l2.demand_avg_mshr_miss_latency::.cpu.inst 65867.619048                       # average overall mshr miss latency
system.l2.demand_avg_mshr_miss_latency::.cpu.data 66317.294093                       # average overall mshr miss latency
system.l2.demand_avg_mshr_miss_latency::total 66314.195043                       # average overall mshr miss latency
system.l2.overall_avg_mshr_miss_latency::.cpu.inst 65867.619048                       # average overall mshr miss latency
system.l2.overall_avg_mshr_miss_latency::.cpu.data 66317.294093                       # average overall mshr miss latency
system.l2.overall_avg_mshr_miss_latency::total 66314.195043                       # average overall mshr miss latency
system.l2.replacements                         234075                       # number of replacements
system.l2.WritebackDirty_hits::.writebacks        85802                       # number of WritebackDirty hits
system.l2.WritebackDirty_hits::total            85802                       # number of WritebackDirty hits
system.l2.WritebackDirty_accesses::.writebacks        85802                       # number of WritebackDirty accesses(hits+misses)
system.l2.WritebackDirty_accesses::total        85802                       # number of WritebackDirty accesses(hits+misses)
system.l2.WritebackClean_hits::.writebacks           21                       # number of WritebackClean hits
system.l2.WritebackClean_hits::total               21                       # number of WritebackClean hits
system.l2.WritebackClean_accesses::.writebacks           21                       # number of WritebackClean accesses(hits+misses)
system.l2.WritebackClean_accesses::total           21                       # number of WritebackClean accesses(hits+misses)
system.l2.CleanEvict_mshr_misses::.writebacks          132                       # number of CleanEvict MSHR misses
system.l2.CleanEvict_mshr_misses::total           132                       # number of CleanEvict MSHR misses
system.l2.CleanEvict_mshr_miss_rate::.writebacks          inf                       # mshr miss rate for CleanEvict accesses
system.l2.CleanEvict_mshr_miss_rate::total          inf                       # mshr miss rate for CleanEvict accesses
system.l2.ReadExReq_misses::.cpu.data          137555                       # number of ReadExReq misses
system.l2.ReadExReq_misses::total              137555                       # number of ReadExReq misses
system.l2.ReadExReq_miss_latency::.cpu.data  10453123000                       # number of ReadExReq miss cycles
system.l2.ReadExReq_miss_latency::total   10453123000                       # number of ReadExReq miss cycles
system.l2.ReadExReq_accesses::.cpu.data        137555                       # number of ReadExReq accesses(hits+misses)
system.l2.ReadExReq_accesses::total            137555                       # number of ReadExReq accesses(hits+misses)
system.l2.ReadExReq_miss_rate::.cpu.data            1                       # miss rate for ReadExReq accesses
system.l2.ReadExReq_miss_rate::total                1                       # miss rate for ReadExReq accesses
system.l2.ReadExReq_avg_miss_latency::.cpu.data 75992.315801                       # average ReadExReq miss latency
system.l2.ReadExReq_avg_miss_latency::total 75992.315801                       # average ReadExReq miss latency
system.l2.ReadExReq_mshr_misses::.cpu.data       137555                       # number of ReadExReq MSHR misses
system.l2.ReadExReq_mshr_misses::total         137555                       # number of ReadExReq MSHR misses
system.l2.ReadExReq_mshr_miss_latency::.cpu.data   9077573000                       # number of ReadExReq MSHR miss cycles
system.l2.ReadExReq_mshr_miss_latency::total   9077573000                       # number of ReadExReq MSHR miss cycles
system.l2.ReadExReq_mshr_miss_rate::.cpu.data            1                       # mshr miss rate for ReadExReq accesses
system.l2.ReadExReq_mshr_miss_rate::total            1                       # mshr miss rate for ReadExReq accesses
system.l2.ReadExReq_avg_mshr_miss_latency::.cpu.data 65992.315801                       # average ReadExReq mshr miss latency
system.l2.ReadExReq_avg_mshr_miss_latency::total 65992.315801                       # average ReadExReq mshr miss latency
system.l2.ReadCleanReq_misses::.cpu.inst         1050                       # number of ReadCleanReq misses
system.l2.ReadCleanReq_misses::total             1050                       # number of ReadCleanReq misses
system.l2.ReadCleanReq_miss_latency::.cpu.inst     79661000                       # number of ReadCleanReq miss cycles
system.l2.ReadCleanReq_miss_latency::total     79661000                       # number of ReadCleanReq miss cycles
system.l2.ReadCleanReq_accesses::.cpu.inst         1050                       # number of ReadCleanReq accesses(hits+misses)
system.l2.ReadCleanReq_accesses::total           1050                       # number of ReadCleanReq accesses(hits+misses)
system.l2.ReadCleanReq_miss_rate::.cpu.inst            1                       # miss rate for ReadCleanReq accesses
system.l2.ReadCleanReq_miss_rate::total             1                       # miss rate for ReadCleanReq accesses
system.l2.ReadCleanReq_avg_miss_latency::.cpu.inst 75867.619048                       # average ReadCleanReq miss latency
system.l2.ReadCleanReq_avg_miss_latency::total 75867.619048                       # average ReadCleanReq miss latency
system.l2.ReadCleanReq_mshr_misses::.cpu.inst         1050                       # number of ReadCleanReq MSHR misses
system.l2.ReadCleanReq_mshr_misses::total         1050                       # number of ReadCleanReq MSHR misses
system.l2.ReadCleanReq_mshr_miss_latency::.cpu.inst     69161000                       # number of ReadCleanReq MSHR miss cycles
system.l2.ReadCleanReq_mshr_miss_latency::total     69161000                       # number of ReadCleanReq MSHR miss cycles
system.l2.ReadCleanReq_mshr_miss_rate::.cpu.inst            1                       # mshr miss rate for ReadCleanReq accesses
system.l2.ReadCleanReq_mshr_miss_rate::total            1                       # mshr miss rate for ReadCleanReq accesses
system.l2.ReadCleanReq_avg_mshr_miss_latency::.cpu.inst 65867.619048                       # average ReadCleanReq mshr miss latency
system.l2.ReadCleanReq_avg_mshr_miss_latency::total 65867.619048                       # average ReadCleanReq mshr miss latency
system.l2.ReadSharedReq_hits::.cpu.data           164                       # number of ReadSharedReq hits
system.l2.ReadSharedReq_hits::total               164                       # number of ReadSharedReq hits
system.l2.ReadSharedReq_misses::.cpu.data        13751                       # number of ReadSharedReq misses
system.l2.ReadSharedReq_misses::total           13751                       # number of ReadSharedReq misses
system.l2.ReadSharedReq_miss_latency::.cpu.data   1094141500                       # number of ReadSharedReq miss cycles
system.l2.ReadSharedReq_miss_latency::total   1094141500                       # number of ReadSharedReq miss cycles
system.l2.ReadSharedReq_accesses::.cpu.data        13915                       # number of ReadSharedReq accesses(hits+misses)
system.l2.ReadSharedReq_accesses::total         13915                       # number of ReadSharedReq accesses(hits+misses)
system.l2.ReadSharedReq_miss_rate::.cpu.data     0.988214                       # miss rate for ReadSharedReq accesses
system.l2.ReadSharedReq_miss_rate::total     0.988214                       # miss rate for ReadSharedReq accesses
system.l2.ReadSharedReq_avg_miss_latency::.cpu.data 79568.140499                       # average ReadSharedReq miss latency
system.l2.ReadSharedReq_avg_miss_latency::total 79568.140499                       # average ReadSharedReq miss latency
system.l2.ReadSharedReq_mshr_misses::.cpu.data        13751                       # number of ReadSharedReq MSHR misses
system.l2.ReadSharedReq_mshr_misses::total        13751                       # number of ReadSharedReq MSHR misses
system.l2.ReadSharedReq_mshr_miss_latency::.cpu.data    956631500                       # number of ReadSharedReq MSHR miss cycles
system.l2.ReadSharedReq_mshr_miss_latency::total    956631500                       # number of ReadSharedReq MSHR miss cycles
system.l2.ReadSharedReq_mshr_miss_rate::.cpu.data     0.988214                       # mshr miss rate for ReadSharedReq accesses
system.l2.ReadSharedReq_mshr_miss_rate::total     0.988214                       # mshr miss rate for ReadSharedReq accesses
system.l2.ReadSharedReq_avg_mshr_miss_latency::.cpu.data 69568.140499                       # average ReadSharedReq mshr miss latency
system.l2.ReadSharedReq_avg_mshr_miss_latency::total 69568.140499                       # average ReadSharedReq mshr miss latency
system.l2.power_state.pwrStateResidencyTicks::UNDEFINED 190325121500                       # Cumulative time (in ticks) in various power states
system.l2.tags.tagsinuse                  4083.160571                       # Cycle average of tags in use
system.l2.tags.total_refs                      238343                       # Total number of references to valid blocks.
system.l2.tags.sampled_refs                    238171                       # Sample count of references to valid blocks.
system.l2.tags.avg_refs                      1.000722                       # Average number of references to valid blocks.
system.l2.tags.warmup_cycle                     77000                       # Cycle when the warmup percentage was hit.
system.l2.tags.occ_blocks::.writebacks    1748.870418                       # Average occupied blocks per requestor
system.l2.tags.occ_blocks::.cpu.inst         5.890968                       # Average occupied blocks per requestor
system.l2.tags.occ_blocks::.cpu.data      2328.399185                       # Average occupied blocks per requestor
system.l2.tags.occ_percent::.writebacks      0.426970                       # Average percentage of cache occupancy
system.l2.tags.occ_percent::.cpu.inst        0.001438                       # Average percentage of cache occupancy
system.l2.tags.occ_percent::.cpu.data        0.568457                       # Average percentage of cache occupancy
system.l2.tags.occ_percent::total            0.996865                       # Average percentage of cache occupancy
system.l2.tags.occ_task_id_blocks::1024          4096                       # Occupied blocks per task id
system.l2.tags.age_task_id_blocks_1024::0           10                       # Occupied blocks per task id
system.l2.tags.age_task_id_blocks_1024::1          102                       # Occupied blocks per task id
system.l2.tags.age_task_id_blocks_1024::2          996                       # Occupied blocks per task id
system.l2.tags.age_task_id_blocks_1024::3         2988                       # Occupied blocks per task id
system.l2.tags.occ_task_id_percent::1024            1                       # Percentage of cache occupancy per task id
system.l2.tags.tag_accesses                    715121                       # Number of tag accesses
system.l2.tags.data_accesses                   715121                       # Number of data accesses
system.l2.tags.power_state.pwrStateResidencyTicks::UNDEFINED 190325121500                       # Cumulative time (in ticks) in various power states
system.mem_ctrls.avgPriority_.writebacks::samples     66771.00                       # Average QoS priority value for accepted requests
system.mem_ctrls.avgPriority_.cpu.inst::samples      1050.00                       # Average QoS priority value for accepted requests
system.mem_ctrls.avgPriority_.cpu.data::samples    151305.00                       # Average QoS priority value for accepted requests
system.mem_ctrls.priorityMinLatency      0.000000018750                       # per QoS priority minimum request to response latency (s)
system.mem_ctrls.priorityMaxLatency      0.003030444500                       # per QoS priority maximum request to response latency (s)
system.mem_ctrls.numReadWriteTurnArounds         3732                       # Number of turnarounds from READ to WRITE
system.mem_ctrls.numWriteReadTurnArounds         3732                       # Number of turnarounds from WRITE to READ
system.mem_ctrls.numStayReadState              435705                       # Number of times bus staying in READ state
system.mem_ctrls.numStayWriteState              63108                       # Number of times bus staying in WRITE state
system.mem_ctrls.readReqs                      152356                       # Number of read requests accepted
system.mem_ctrls.writeReqs                      83590                       # Number of write requests accepted
system.mem_ctrls.readBursts                    152356                       # Number of controller read bursts, including those serviced by the write queue
system.mem_ctrls.writeBursts                    83590                       # Number of controller write bursts, including those merged in the write queue
system.mem_ctrls.servicedByWrQ                      1                       # Number of controller read bursts serviced by the write queue
system.mem_ctrls.mergedWrBursts                 16819                       # Number of controller write bursts merged with an existing one
system.mem_ctrls.neitherReadNorWriteReqs            0                       # Number of requests that are neither read nor write
system.mem_ctrls.avgRdQLen                       1.00                       # Average read queue length when enqueuing
system.mem_ctrls.avgWrQLen                      21.86                       # Average write queue length when enqueuing
system.mem_ctrls.numRdRetry                         0                       # Number of times read queue was full causing retry
system.mem_ctrls.numWrRetry                         0                       # Number of times write queue was full causing retry
system.mem_ctrls.readPktSize::0                     0                       # Read request sizes (log2)
system.mem_ctrls.readPktSize::1                     0                       # Read request sizes (log2)
system.mem_ctrls.readPktSize::2                     0                       # Read request sizes (log2)
system.mem_ctrls.readPktSize::3                     0                       # Read request sizes (log2)
system.mem_ctrls.readPktSize::4                     0                       # Read request sizes (log2)
system.mem_ctrls.readPktSize::5                152356                       # Read request sizes (log2)
system.mem_ctrls.writePktSize::0                    0                       # Write request sizes (log2)
system.mem_ctrls.writePktSize::1                    0                       # Write request sizes (log2)
system.mem_ctrls.writePktSize::2                    0                       # Write request sizes (log2)
system.mem_ctrls.writePktSize::3                    0                       # Write request sizes (log2)
system.mem_ctrls.writePktSize::4                    0                       # Write request sizes (log2)
system.mem_ctrls.writePktSize::5                83590                       # Write request sizes (log2)
system.mem_ctrls.rdQLenPdf::0                  152355                       # What read queue length does an incoming req see
system.mem_ctrls.rdQLenPdf::1                       0                       # What read queue length does an incoming req see
system.mem_ctrls.rdQLenPdf::2                       0                       # What read queue length does an incoming req see
system.mem_ctrls.rdQLenPdf::3                       0                       # What read queue length does an incoming req see
system.mem_ctrls.rdQLenPdf::4                       0                       # What read queue length does an incoming req see
system.mem_ctrls.rdQLenPdf::5                       0                       # What read queue length does an incoming req see
system.mem_ctrls.rdQLenPdf::6                       0                       # What read queue length does an incoming req see
system.mem_ctrls.rdQLenPdf::7                       0                       # What read queue length does an incoming req see
system.mem_ctrls.rdQLenPdf::8                       0                       # What read queue length does an incoming req see
system.mem_ctrls.rdQLenPdf::9                       0                       # What read queue length does an incoming req see
system.mem_ctrls.rdQLenPdf::10                      0                       # What read queue length does an incoming req see
system.mem_ctrls.rdQLenPdf::11                      0                       # What read queue length does an incoming req see
system.mem_ctrls.rdQLenPdf::12                      0                       # What read queue length does an incoming req see
system.mem_ctrls.rdQLenPdf::13                      0                       # What read queue length does an incoming req see
system.mem_ctrls.rdQLenPdf::14                      0                       # What read queue length does an incoming req see
system.mem_ctrls.rdQLenPdf::15                      0                       # What read queue length does an incoming req see
system.mem_ctrls.rdQLenPdf::16                      0                       # What read queue length does an incoming req see
system.mem_ctrls.rdQLenPdf::17                      0                       # What read queue length does an incoming req see
system.mem_ctrls.rdQLenPdf::18                      0                       # What read queue length does an incoming req see
system.mem_ctrls.rdQLenPdf::19                      0                       # What read queue length does an incoming req see
system.mem_ctrls.rdQLenPdf::20                      0                       # What read queue length does an incoming req see
system.mem_ctrls.rdQLenPdf::21                      0                       # What read queue length does an incoming req see
system.mem_ctrls.rdQLenPdf::22                      0                       # What read queue length does an incoming req see
system.mem_ctrls.rdQLenPdf::23                      0                       # What read queue length does an incoming req see
system.mem_ctrls.rdQLenPdf::24                      0                       # What read queue length does an incoming req see
system.mem_ctrls.rdQLenPdf::25                      0                       # What read queue length does an incoming req see
system.mem_ctrls.rdQLenPdf::26                      0                       # What read queue length does an incoming req see
system.mem_ctrls.rdQLenPdf::27                      0                       # What read queue length does an incoming req see
system.mem_ctrls.rdQLenPdf::28                      0                       # What read queue length does an incoming req see
system.mem_ctrls.rdQLenPdf::29                      0                       # What read queue length does an incoming req see
system.mem_ctrls.rdQLenPdf::30                      0                       # What read queue length does an incoming req see
system.mem_ctrls.rdQLenPdf::31                      0                       # What read queue length does an incoming req see
system.mem_ctrls.wrQLenPdf::0                       1                       # What write queue length does an incoming req see
system.mem_ctrls.wrQLenPdf::1                       1                       # What write queue length does an incoming req see
system.mem_ctrls.wrQLenPdf::2                       1                       # What write queue length does an incoming req see
system.mem_ctrls.wrQLenPdf::3                       1                       # What write queue length does an incoming req see
system.mem_ctrls.wrQLenPdf::4                       1                       # What write queue length does an incoming req see
system.mem_ctrls.wrQLenPdf::5                       1                       # What write queue length does an incoming req see
system.mem_ctrls.wrQLenPdf::6                       1                       # What write queue length does an incoming req see
system.mem_ctrls.wrQLenPdf::7                       1                       # What write queue length does an incoming req see
system.mem_ctrls.wrQLenPdf::8                       1                       # What write queue length does an incoming req see
system.mem_ctrls.wrQLenPdf::9                       1                       # What write queue length does an incoming req see
system.mem_ctrls.wrQLenPdf::10                      1                       # What write queue length does an incoming req see
system.mem_ctrls.wrQLenPdf::11                      1                       # What write queue length does an incoming req see
system.mem_ctrls.wrQLenPdf::12                      1                       # What write queue length does an incoming req see
system.mem_ctrls.wrQLenPdf::13                      1                       # What write queue length does an incoming req see
system.mem_ctrls.wrQLenPdf::14                      1                       # What write queue length does an incoming req see
system.mem_ctrls.wrQLenPdf::15                   3195                       # What write queue length does an incoming req see
system.mem_ctrls.wrQLenPdf::16                   3358                       # What write queue length does an incoming req see
system.mem_ctrls.wrQLenPdf::17                   3732                       # What write queue length does an incoming req see
system.mem_ctrls.wrQLenPdf::18                   3799                       # What write queue length does an incoming req see
system.mem_ctrls.wrQLenPdf::19                   3795                       # What write queue length does an incoming req see
system.mem_ctrls.wrQLenPdf::20                   3778                       # What write queue length does an incoming req see
system.mem_ctrls.wrQLenPdf::21                   3776                       # What write queue length does an incoming req see
system.mem_ctrls.wrQLenPdf::22                   3772                       # What write queue length does an incoming req see
system.mem_ctrls.wrQLenPdf::23                   3800                       # What write queue length does an incoming req see
system.mem_ctrls.wrQLenPdf::24                   3786                       # What write queue length does an incoming req see
system.mem_ctrls.wrQLenPdf::25                   3801                       # What write queue length does an incoming req see
system.mem_ctrls.wrQLenPdf::26                   3747                       # What write queue length does an incoming req see
system.mem_ctrls.wrQLenPdf::27                   3744                       # What write queue length does an incoming req see
system.mem_ctrls.wrQLenPdf::28                   3739                       # What write queue length does an incoming req see
system.mem_ctrls.wrQLenPdf::29                   3736                       # What write queue length does an incoming req see
system.mem_ctrls.wrQLenPdf::30                   3734                       # What write queue length does an incoming req see
system.mem_ctrls.wrQLenPdf::31                   3732                       # What write queue length does an incoming req see
system.mem_ctrls.wrQLenPdf::32                   3732                       # What write queue length does an incoming req see
system.mem_ctrls.wrQLenPdf::33                      0                       # What write queue length does an incoming req see
system.mem_ctrls.wrQLenPdf::34                      0                       # What write queue length does an incoming req see
system.mem_ctrls.wrQLenPdf::35                      0                       # What write queue length does an incoming req see
system.mem_ctrls.wrQLenPdf::36                      0                       # What write queue length does an incoming req see
system.mem_ctrls.wrQLenPdf::37                      0                       # What write queue length does an incoming req see
system.mem_ctrls.wrQLenPdf::38                      0                       # What write queue length does an incoming req see
system.mem_ctrls.wrQLenPdf::39                      0                       # What write queue length does an incoming req see
system.mem_ctrls.wrQLenPdf::40                      0                       # What write queue length does an incoming req see
system.mem_ctrls.wrQLenPdf::41                      0                       # What write queue length does an incoming req see
system.mem_ctrls.wrQLenPdf::42                      0                       # What write queue length does an incoming req see
system.mem_ctrls.wrQLenPdf::43                      0                       # What write queue length does an incoming req see
system.mem_ctrls.wrQLenPdf::44                      0                       # What write queue length does an incoming req see
system.mem_ctrls.wrQLenPdf::45                      0                       # What write queue length does an incoming req see
system.mem_ctrls.wrQLenPdf::46                      0                       # What write queue length does an incoming req see
system.mem_ctrls.wrQLenPdf::47                      0                       # What write queue length does an incoming req see
system.mem_ctrls.wrQLenPdf::48                      0                       # What write queue length does an incoming req see
system.mem_ctrls.wrQLenPdf::49                      0                       # What write queue length does an incoming req see
system.mem_ctrls.wrQLenPdf::50                      0                       # What write queue length does an incoming req see
system.mem_ctrls.wrQLenPdf::51                      0                       # What write queue length does an incoming req see
system.mem_ctrls.wrQLenPdf::52                      0                       # What write queue length does an incoming req see
system.mem_ctrls.wrQLenPdf::53                      0                       # What write queue length does an incoming req see
system.mem_ctrls.wrQLenPdf::54                      0                       # What write queue length does an incoming req see
system.mem_ctrls.wrQLenPdf::55                      0                       # What write queue length does an incoming req see
system.mem_ctrls.wrQLenPdf::56                      0                       # What write queue length does an incoming req see
system.mem_ctrls.wrQLenPdf::57                      0                       # What write queue length does an incoming req see
system.mem_ctrls.wrQLenPdf::58                      0                       # What write queue length does an incoming req see
system.mem_ctrls.wrQLenPdf::59                      0                       # What write queue length does an incoming req see
system.mem_ctrls.wrQLenPdf::60                      0                       # What write queue length does an incoming req see
system.mem_ctrls.wrQLenPdf::61                      0                       # What write queue length does an incoming req see
system.mem_ctrls.wrQLenPdf::62                      0                       # What write queue length does an incoming req see
system.mem_ctrls.wrQLenPdf::63                      0                       # What write queue length does an incoming req see
system.mem_ctrls.rdPerTurnAround::samples         3732                       # Reads before turning the bus around for writes
system.mem_ctrls.rdPerTurnAround::mean      40.821008                       # Reads before turning the bus around for writes
system.mem_ctrls.rdPerTurnAround::gmean     24.679964                       # Reads before turning the bus around for writes
system.mem_ctrls.rdPerTurnAround::stdev    938.197052                       # Reads before turning the bus around for writes
system.mem_ctrls.rdPerTurnAround::0-2047         3731     99.97%     99.97% # Reads before turning the bus around for writes
system.mem_ctrls.rdPerTurnAround::55296-57343            1      0.03%    100.00% # Reads before turning the bus around for writes
system.mem_ctrls.rdPerTurnAround::total          3732                       # Reads before turning the bus around for writes
system.mem_ctrls.wrPerTurnAround::samples         3732                       # Writes before turning the bus around for reads
system.mem_ctrls.wrPerTurnAround::mean      17.885584                       # Writes before turning the bus around for reads
system.mem_ctrls.wrPerTurnAround::gmean     17.864998                       # Writes before turning the bus around for reads
system.mem_ctrls.wrPerTurnAround::stdev      0.841204                       # Writes before turning the bus around for reads
system.mem_ctrls.wrPerTurnAround::16              515     13.80%     13.80% # Writes before turning the bus around for reads
system.mem_ctrls.wrPerTurnAround::17               13      0.35%     14.15% # Writes before turning the bus around for reads
system.mem_ctrls.wrPerTurnAround::18             2588     69.35%     83.49% # Writes before turning the bus around for reads
system.mem_ctrls.wrPerTurnAround::19              616     16.51%    100.00% # Writes before turning the bus around for reads
system.mem_ctrls.wrPerTurnAround::total          3732                       # Writes before turning the bus around for reads
system.mem_ctrls.bytesReadWrQ                      64                       # Total number of bytes read from write queue
system.mem_ctrls.bytesReadSys                 4875392                       # Total read bytes from the system interface side
system.mem_ctrls.bytesWrittenSys              2674880                       # Total written bytes from the system interface side
system.mem_ctrls.avgRdBWSys                     25.62                       # Average system read bandwidth in MiByte/s
system.mem_ctrls.avgWrBWSys                     14.05                       # Average system write bandwidth in MiByte/s
system.mem_ctrls.totGap                  190322906500                       # Total gap between requests
system.mem_ctrls.avgGap                     806637.56                       # Average gap between requests
system.mem_ctrls.requestorReadBytes::.cpu.inst        33600                       # Per-requestor bytes read from memory
system.mem_ctrls.requestorReadBytes::.cpu.data      4841760                       # Per-requestor bytes read from memory
system.mem_ctrls.requestorWriteBytes::.writebacks      2135968                       # Per-requestor bytes write to memory
system.mem_ctrls.requestorReadRate::.cpu.inst 176540.016027258913                       # Per-requestor bytes read from memory rate (Bytes/sec)
system.mem_ctrls.requestorReadRate::.cpu.data 25439416.309528008103                       # Per-requestor bytes read from memory rate (Bytes/sec)
system.mem_ctrls.requestorWriteRate::.writebacks 11222732.885527146980                       # Per-requestor bytes write to memory rate (Bytes/sec)
system.mem_ctrls.requestorReadAccesses::.cpu.inst         1050                       # Per-requestor read serviced memory accesses
system.mem_ctrls.requestorReadAccesses::.cpu.data       151306                       # Per-requestor read serviced memory accesses
system.mem_ctrls.requestorWriteAccesses::.writebacks        83590                       # Per-requestor write serviced memory accesses
system.mem_ctrls.requestorReadTotalLat::.cpu.inst     26314750                       # Per-requestor read total memory access latency
system.mem_ctrls.requestorReadTotalLat::.cpu.data   3853901750                       # Per-requestor read total memory access latency
system.mem_ctrls.requestorWriteTotalLat::.writebacks 3984220196250                       # Per-requestor write total memory access latency
[...]
system.mem_ctrls.dram.bw_total::.cpu.data     25439584                       # Total bandwidth to/from this memory (bytes/s)
system.mem_ctrls.dram.bw_total::total        39670391                       # Total bandwidth to/from this memory (bytes/s)
system.mem_ctrls.dram.readBursts               152355                       # Number of DRAM read bursts
system.mem_ctrls.dram.writeBursts               66749                       # Number of DRAM write bursts
system.mem_ctrls.dram.perBankRdBursts::0         9763                       # Per bank write bursts
system.mem_ctrls.dram.perBankRdBursts::1         9729                       # Per bank write bursts
system.mem_ctrls.dram.perBankRdBursts::2         9673                       # Per bank write bursts
system.mem_ctrls.dram.perBankRdBursts::3         9463                       # Per bank write bursts
system.mem_ctrls.dram.perBankRdBursts::4         9340                       # Per bank write bursts
system.mem_ctrls.dram.perBankRdBursts::5         9419                       # Per bank write bursts
system.mem_ctrls.dram.perBankRdBursts::6         9227                       # Per bank write bursts
system.mem_ctrls.dram.perBankRdBursts::7         9467                       # Per bank write bursts
system.mem_ctrls.dram.perBankRdBursts::8         9558                       # Per bank write bursts
system.mem_ctrls.dram.perBankRdBursts::9         9468                       # Per bank write bursts
system.mem_ctrls.dram.perBankRdBursts::10         9619                       # Per bank write bursts
system.mem_ctrls.dram.perBankRdBursts::11         9496                       # Per bank write bursts
system.mem_ctrls.dram.perBankRdBursts::12         9497                       # Per bank write bursts
system.mem_ctrls.dram.perBankRdBursts::13         9527                       # Per bank write bursts
system.mem_ctrls.dram.perBankRdBursts::14         9612                       # Per bank write bursts
system.mem_ctrls.dram.perBankRdBursts::15         9497                       # Per bank write bursts
system.mem_ctrls.dram.perBankWrBursts::0         4075                       # Per bank write bursts
system.mem_ctrls.dram.perBankWrBursts::1         4195                       # Per bank write bursts
system.mem_ctrls.dram.perBankWrBursts::2         4104                       # Per bank write bursts
system.mem_ctrls.dram.perBankWrBursts::3         4185                       # Per bank write bursts
system.mem_ctrls.dram.perBankWrBursts::4         4102                       # Per bank write bursts
system.mem_ctrls.dram.perBankWrBursts::5         4233                       # Per bank write bursts
system.mem_ctrls.dram.perBankWrBursts::6         4084                       # Per bank write bursts
system.mem_ctrls.dram.perBankWrBursts::7         4212                       # Per bank write bursts
system.mem_ctrls.dram.perBankWrBursts::8         4274                       # Per bank write bursts
system.mem_ctrls.dram.perBankWrBursts::9         4220                       # Per bank write bursts
system.mem_ctrls.dram.perBankWrBursts::10         4338                       # Per bank write bursts
system.mem_ctrls.dram.perBankWrBursts::11         4270                       # Per bank write bursts
system.mem_ctrls.dram.perBankWrBursts::12         4096                       # Per bank write bursts
system.mem_ctrls.dram.perBankWrBursts::13         4131                       # Per bank write bursts
system.mem_ctrls.dram.perBankWrBursts::14         4107                       # Per bank write bursts
system.mem_ctrls.dram.perBankWrBursts::15         4123                       # Per bank write bursts
system.mem_ctrls.dram.totQLat              1023560250                       # Total ticks spent queuing
system.mem_ctrls.dram.totBusLat             761775000                       # Total ticks spent in databus transfers
system.mem_ctrls.dram.totMemAccLat         3880216500                       # Total ticks spent from burst creation until serviced by the DRAM
system.mem_ctrls.dram.avgQLat                 6718.26                       # Average queueing delay per DRAM burst
system.mem_ctrls.dram.avgBusLat               5000.00                       # Average bus latency per DRAM burst
system.mem_ctrls.dram.avgMemAccLat           25468.26                       # Average memory access latency per DRAM burst
system.mem_ctrls.dram.readRowHits              117389                       # Number of row buffer hits during reads
system.mem_ctrls.dram.writeRowHits              52541                       # Number of row buffer hits during writes
system.mem_ctrls.dram.readRowHitRate            77.05                       # Row buffer hit rate for reads
system.mem_ctrls.dram.writeRowHitRate           78.71                       # Row buffer hit rate for writes
system.mem_ctrls.dram.bytesPerActivate::samples        49172                       # Bytes accessed per row activation
system.mem_ctrls.dram.bytesPerActivate::mean   285.171724                       # Bytes accessed per row activation
system.mem_ctrls.dram.bytesPerActivate::gmean   204.414139                       # Bytes accessed per row activation
system.mem_ctrls.dram.bytesPerActivate::stdev   249.601011                       # Bytes accessed per row activation
system.mem_ctrls.dram.bytesPerActivate::0-127        12012     24.43%     24.43% # Bytes accessed per row activation
system.mem_ctrls.dram.bytesPerActivate::128-255         6920     14.07%     38.50% # Bytes accessed per row activation
system.mem_ctrls.dram.bytesPerActivate::256-383        21293     43.30%     81.80% # Bytes accessed per row activation
system.mem_ctrls.dram.bytesPerActivate::384-511         1107      2.25%     84.06% # Bytes accessed per row activation
system.mem_ctrls.dram.bytesPerActivate::512-639         1804      3.67%     87.72% # Bytes accessed per row activation
system.mem_ctrls.dram.bytesPerActivate::640-767         1093      2.22%     89.95% # Bytes accessed per row activation
system.mem_ctrls.dram.bytesPerActivate::768-895         1960      3.99%     93.93% # Bytes accessed per row activation
system.mem_ctrls.dram.bytesPerActivate::896-1023          680      1.38%     95.32% # Bytes accessed per row activation
system.mem_ctrls.dram.bytesPerActivate::1024-1151         2303      4.68%    100.00% # Bytes accessed per row activation
system.mem_ctrls.dram.bytesPerActivate::total        49172                       # Bytes accessed per row activation
system.mem_ctrls.dram.bytesRead               9750720                       # Total number of bytes read from DRAM
system.mem_ctrls.dram.bytesWritten            4271936                       # Total number of bytes written to DRAM
system.mem_ctrls.dram.avgRdBW               51.231913                       # Average DRAM read bandwidth in MiBytes/s
system.mem_ctrls.dram.avgWrBW               22.445466                       # Average DRAM write bandwidth in MiBytes/s
system.mem_ctrls.dram.peakBW                 12800.00                       # Theoretical peak bandwidth in MiByte/s
system.mem_ctrls.dram.busUtil                    0.58                       # Data bus utilization in percentage
system.mem_ctrls.dram.busUtilRead                0.40                       # Data bus utilization in percentage for reads
system.mem_ctrls.dram.busUtilWrite               0.18                       # Data bus utilization in percentage for writes
system.mem_ctrls.dram.pageHitRate               77.56                       # Row buffer hit rate, read and write combined
system.mem_ctrls.dram.power_state.pwrStateResidencyTicks::UNDEFINED 190325121500                       # Cumulative time (in ticks) in various power states
system.mem_ctrls.dram.rank0.actEnergy       174058920                       # Energy for activate commands per rank (pJ)
system.mem_ctrls.dram.rank0.preEnergy        92506920                       # Energy for precharge commands per rank (pJ)
system.mem_ctrls.dram.rank0.readEnergy      543218340                       # Energy for read commands per rank (pJ)
system.mem_ctrls.dram.rank0.writeEnergy     173251800                       # Energy for write commands per rank (pJ)
system.mem_ctrls.dram.rank0.refreshEnergy 15023645520.000002                       # Energy for refresh commands per rank (pJ)
system.mem_ctrls.dram.rank0.actBackEnergy  40579143030                       # Energy for active background per rank (pJ)
system.mem_ctrls.dram.rank0.preBackEnergy  38912937120                       # Energy for precharge background per rank (pJ)
system.mem_ctrls.dram.rank0.actPowerDownEnergy            0                       # Energy for active power-down per rank (pJ)
system.mem_ctrls.dram.rank0.prePowerDownEnergy            0                       # Energy for precharge power-down per rank (pJ)
system.mem_ctrls.dram.rank0.selfRefreshEnergy            0                       # Energy for self refresh per rank (pJ)
system.mem_ctrls.dram.rank0.totalEnergy   95498761650                       # Total energy per rank (pJ)
system.mem_ctrls.dram.rank0.averagePower   501.766456                       # Core power per rank (mW)
system.mem_ctrls.dram.rank0.totalIdleTime            0                       # Total Idle time Per DRAM Rank
system.mem_ctrls.dram.rank0.pwrStateTime::IDLE 100755788250                       # Time in different power states
system.mem_ctrls.dram.rank0.pwrStateTime::REF   6355180000                       # Time in different power states
system.mem_ctrls.dram.rank0.pwrStateTime::SREF            0                       # Time in different power states
system.mem_ctrls.dram.rank0.pwrStateTime::PRE_PDN            0                       # Time in different power states
system.mem_ctrls.dram.rank0.pwrStateTime::ACT  83214153250                       # Time in different power states
system.mem_ctrls.dram.rank0.pwrStateTime::ACT_PDN            0                       # Time in different power states
system.mem_ctrls.dram.rank1.actEnergy       177043440                       # Energy for activate commands per rank (pJ)
system.mem_ctrls.dram.rank1.preEnergy        94100820                       # Energy for precharge commands per rank (pJ)
system.mem_ctrls.dram.rank1.readEnergy      544596360                       # Energy for read commands per rank (pJ)
system.mem_ctrls.dram.rank1.writeEnergy     175177980                       # Energy for write commands per rank (pJ)
system.mem_ctrls.dram.rank1.refreshEnergy 15023645520.000002                       # Energy for refresh commands per rank (pJ)
system.mem_ctrls.dram.rank1.actBackEnergy  40804376250                       # Energy for active background per rank (pJ)
system.mem_ctrls.dram.rank1.preBackEnergy  38723267040                       # Energy for precharge background per rank (pJ)
system.mem_ctrls.dram.rank1.actPowerDownEnergy            0                       # Energy for active power-down per rank (pJ)
system.mem_ctrls.dram.rank1.prePowerDownEnergy            0                       # Energy for precharge power-down per rank (pJ)
system.mem_ctrls.dram.rank1.selfRefreshEnergy            0                       # Energy for self refresh per rank (pJ)
system.mem_ctrls.dram.rank1.totalEnergy   95542207410                       # Total energy per rank (pJ)
system.mem_ctrls.dram.rank1.averagePower   501.994727                       # Core power per rank (mW)
system.mem_ctrls.dram.rank1.totalIdleTime            0                       # Total Idle time Per DRAM Rank
system.mem_ctrls.dram.rank1.pwrStateTime::IDLE 100260932000                       # Time in different power states
system.mem_ctrls.dram.rank1.pwrStateTime::REF   6355180000                       # Time in different power states
system.mem_ctrls.dram.rank1.pwrStateTime::SREF            0                       # Time in different power states
system.mem_ctrls.dram.rank1.pwrStateTime::PRE_PDN            0                       # Time in different power states
system.mem_ctrls.dram.rank1.pwrStateTime::ACT  83709009500                       # Time in different power states
system.mem_ctrls.dram.rank1.pwrStateTime::ACT_PDN            0                       # Time in different power states
system.mem_ctrls.power_state.pwrStateResidencyTicks::UNDEFINED 190325121500                       # Cumulative time (in ticks) in various power states
system.membus.trans_dist::ReadResp              14801                       # Transaction distribution
system.membus.trans_dist::WritebackDirty        83590                       # Transaction distribution
system.membus.trans_dist::CleanEvict              153                       # Transaction distribution
system.membus.trans_dist::ReadExReq            137555                       # Transaction distribution
system.membus.trans_dist::ReadExResp           137555                       # Transaction distribution
system.membus.trans_dist::ReadSharedReq         14801                       # Transaction distribution
system.membus.pkt_count_system.l2.mem_side_port::system.mem_ctrls.port       388455                       # Packet count per connected requestor and responder (bytes)
system.membus.pkt_count_system.l2.mem_side_port::total       388455                       # Packet count per connected requestor and responder (bytes)
system.membus.pkt_count::total                 388455                       # Packet count per connected requestor and responder (bytes)
system.membus.pkt_size_system.l2.mem_side_port::system.mem_ctrls.port      7550272                       # Cumulative packet size per connected requestor and responder (bytes)
system.membus.pkt_size_system.l2.mem_side_port::total      7550272                       # Cumulative packet size per connected requestor and responder (bytes)
system.membus.pkt_size::total                 7550272                       # Cumulative packet size per connected requestor and responder (bytes)
system.membus.snoops                                0                       # Total snoops (count)
system.membus.snoopTraffic                          0                       # Total snoop traffic (bytes)
system.membus.snoop_fanout::samples            152356                       # Request fanout histogram
system.membus.snoop_fanout::mean                    0                       # Request fanout histogram
system.membus.snoop_fanout::stdev                   0                       # Request fanout histogram
system.membus.snoop_fanout::underflows              0      0.00%      0.00% # Request fanout histogram
system.membus.snoop_fanout::0                  152356    100.00%    100.00% # Request fanout histogram
system.membus.snoop_fanout::1                       0      0.00%    100.00% # Request fanout histogram
system.membus.snoop_fanout::overflows               0      0.00%    100.00% # Request fanout histogram
system.membus.snoop_fanout::min_value               0                       # Request fanout histogram
system.membus.snoop_fanout::max_value               0                       # Request fanout histogram
system.membus.snoop_fanout::total              152356                       # Request fanout histogram
system.membus.power_state.pwrStateResidencyTicks::UNDEFINED 190325121500                       # Cumulative time (in ticks) in various power states
system.membus.reqLayer2.occupancy           409246500                       # Layer occupancy (ticks)
system.membus.reqLayer2.utilization               0.2                       # Layer utilization (%)
system.membus.respLayer1.occupancy          503840500                       # Layer occupancy (ticks)
system.membus.respLayer1.utilization              0.3                       # Layer utilization (%)
system.tol2bus.trans_dist::ReadResp             14965                       # Transaction distribution
system.tol2bus.trans_dist::WritebackDirty       169392                       # Transaction distribution
system.tol2bus.trans_dist::WritebackClean           21                       # Transaction distribution
system.tol2bus.trans_dist::CleanEvict          150617                       # Transaction distribution
system.tol2bus.trans_dist::ReadExReq           137555                       # Transaction distribution
system.tol2bus.trans_dist::ReadExResp          137555                       # Transaction distribution
system.tol2bus.trans_dist::ReadCleanReq          1050                       # Transaction distribution
system.tol2bus.trans_dist::ReadSharedReq        13915                       # Transaction distribution
system.tol2bus.pkt_count_system.cpu.icache.mem_side_port::system.l2.cpu_side_port         2121                       # Packet count per connected requestor and responder (bytes)
system.tol2bus.pkt_count_system.cpu.dcache.mem_side_port::system.l2.cpu_side_port       388874                       # Packet count per connected requestor and responder (bytes)
system.tol2bus.pkt_count::total                390995                       # Packet count per connected requestor and responder (bytes)
system.tol2bus.pkt_size_system.cpu.icache.mem_side_port::system.l2.cpu_side_port        34272                       # Cumulative packet size per connected requestor and responder (bytes)
system.tol2bus.pkt_size_system.cpu.dcache.mem_side_port::system.l2.cpu_side_port      7592704                       # Cumulative packet size per connected requestor and responder (bytes)
system.tol2bus.pkt_size::total                7626976                       # Cumulative packet size per connected requestor and responder (bytes)
system.tol2bus.snoops                          234075                       # Total snoops (count)
system.tol2bus.snoopTraffic                   2674880                       # Total snoop traffic (bytes)
system.tol2bus.snoop_fanout::samples           386595                       # Request fanout histogram
system.tol2bus.snoop_fanout::mean            0.389203                       # Request fanout histogram
system.tol2bus.snoop_fanout::stdev           0.487570                       # Request fanout histogram
system.tol2bus.snoop_fanout::underflows             0      0.00%      0.00% # Request fanout histogram
system.tol2bus.snoop_fanout::0                 236131     61.08%     61.08% # Request fanout histogram
system.tol2bus.snoop_fanout::1                 150464     38.92%    100.00% # Request fanout histogram
system.tol2bus.snoop_fanout::2                      0      0.00%    100.00% # Request fanout histogram
system.tol2bus.snoop_fanout::3                      0      0.00%    100.00% # Request fanout histogram
system.tol2bus.snoop_fanout::4                      0      0.00%    100.00% # Request fanout histogram
system.tol2bus.snoop_fanout::overflows              0      0.00%    100.00% # Request fanout histogram
system.tol2bus.snoop_fanout::min_value              0                       # Request fanout histogram
system.tol2bus.snoop_fanout::max_value              1                       # Request fanout histogram
system.tol2bus.snoop_fanout::total             386595                       # Request fanout histogram
system.tol2bus.power_state.pwrStateResidencyTicks::UNDEFINED 190325121500                       # Cumulative time (in ticks) in various power states
system.tol2bus.reqLayer0.occupancy          162149000                       # Layer occupancy (ticks)
system.tol2bus.reqLayer0.utilization              0.1                       # Layer utilization (%)
system.tol2bus.respLayer0.occupancy           1050000                       # Layer occupancy (ticks)
system.tol2bus.respLayer0.utilization             0.0                       # Layer utilization (%)
system.tol2bus.respLayer1.occupancy         151470000                       # Layer occupancy (ticks)
system.tol2bus.respLayer1.utilization             0.1                       # Layer utilization (%)
system.voltage_domain.voltage                       1                       # Voltage in Volts

---------- End Simulation Statistics   ----------
