
---------- Begin Simulation Statistics ----------
final_tick                               189911125500                       # Number of ticks from beginning of simulation (restored from checkpoints and never reset)
host_inst_rate                                 774482                       # Simulator instruction rate (inst/s)
host_mem_usage                                 701904                       # Number of bytes of host memory used
host_op_rate                                  1426690                       # Simulator op (including micro ops) rate (op/s)
host_seconds                                   129.12                       # Real time elapsed on the host
host_tick_rate                             1470826313                       # Simulator tick rate (ticks/s)
sim_freq                                 1000000000000                       # Frequency of simulated ticks
sim_insts                                   100000001                       # Number of instructions simulated
sim_ops                                     184212218                       # Number of ops (including micro ops) simulated
sim_seconds                                  0.189911                       # Number of seconds simulated
sim_ticks                                189911125500                       # Number of ticks simulated
system.cpu.Branches                          21138365                       # Number of branches fetched
system.cpu.committedInsts                   100000001                       # Number of instructions committed
system.cpu.committedOps                     184212218                       # Number of ops (including micro ops) committed
system.cpu.idle_fraction                            0                       # Percentage of idle cycles
system.cpu.not_idle_fraction                        1                       # Percentage of non-idle cycles
system.cpu.numCycles                        379822251                       # number of cpu cycles simulated
system.cpu.numWorkItemsCompleted                    0                       # number of work items this cpu completed
system.cpu.numWorkItemsStarted                      0                       # number of work items this cpu started
system.cpu.num_busy_cycles                  379822251                       # Number of busy cycles
system.cpu.num_cc_register_reads            110470900                       # number of times the CC registers were read
system.cpu.num_cc_register_writes            56278691                       # number of times the CC registers were written
system.cpu.num_conditional_control_insts     17377044                       # number of instructions that are conditional controls
system.cpu.num_fp_alu_accesses                4198252                       # Number of float alu accesses
system.cpu.num_fp_insts                       4198252                       # number of float instructions
system.cpu.num_fp_register_reads              4465556                       # number of times the floating registers were read
system.cpu.num_fp_register_writes             2555554                       # number of times the floating registers were written
system.cpu.num_func_calls                     1777727                       # number of times a function call or return occured
system.cpu.num_idle_cycles                          0                       # Number of idle cycles
system.cpu.num_int_alu_accesses             181168224                       # Number of integer alu accesses
system.cpu.num_int_insts                    181168224                       # number of integer instructions
system.cpu.num_int_register_reads           359599209                       # number of times the integer registers were read
system.cpu.num_int_register_writes          144214147                       # number of times the integer registers were written
system.cpu.num_load_insts                    23270941                       # Number of load instructions
system.cpu.num_mem_refs                      38707146                       # number of memory refs
system.cpu.num_store_insts                   15436205                       # Number of store instructions
system.cpu.num_vec_alu_accesses                     0                       # Number of vector alu accesses
system.cpu.num_vec_insts                            0                       # number of vector instructions
system.cpu.num_vec_register_reads                   0                       # number of times the vector registers were read
system.cpu.num_vec_register_writes                  0                       # number of times the vector registers were written
system.cpu.op_class::No_OpClass               1407926      0.76%      0.76% # Class of executed instruction
system.cpu.op_class::IntAlu                 141803021     76.98%     77.74% # Class of executed instruction
system.cpu.op_class::IntMult                   451603      0.25%     77.99% # Class of executed instruction
system.cpu.op_class::IntDiv                        28      0.00%     77.99% # Class of executed instruction
system.cpu.op_class::FloatAdd                  465164      0.25%     78.24% # Class of executed instruction
system.cpu.op_class::FloatCmp                       0      0.00%     78.24% # Class of executed instruction
system.cpu.op_class::FloatCvt                       0      0.00%     78.24% # Class of executed instruction
system.cpu.op_class::FloatMult                      0      0.00%     78.24% # Class of executed instruction
system.cpu.op_class::FloatMultAcc                   0      0.00%     78.24% # Class of executed instruction
system.cpu.op_class::FloatDiv                       0      0.00%     78.24% # Class of executed instruction
system.cpu.op_class::FloatMisc                      0      0.00%     78.24% # Class of executed instruction
system.cpu.op_class::FloatSqrt                      0      0.00%     78.24% # Class of executed instruction
system.cpu.op_class::SimdAdd                        0      0.00%     78.24% # Class of executed instruction
system.cpu.op_class::SimdAddAcc                     0      0.00%     78.24% # Class of executed instruction
system.cpu.op_class::SimdAlu                    95520      0.05%     78.29% # Class of executed instruction
system.cpu.op_class::SimdCmp                        0      0.00%     78.29% # Class of executed instruction
system.cpu.op_class::SimdCvt                   215010      0.12%     78.41% # Class of executed instruction
system.cpu.op_class::SimdMisc                 1068136      0.58%     78.99% # Class of executed instruction
system.cpu.op_class::SimdMult                       0      0.00%     78.99% # Class of executed instruction
system.cpu.op_class::SimdMultAcc                    0      0.00%     78.99% # Class of executed instruction
system.cpu.op_class::SimdShift                      0      0.00%     78.99% # Class of executed instruction
system.cpu.op_class::SimdShiftAcc                   0      0.00%     78.99% # Class of executed instruction
system.cpu.op_class::SimdDiv                        0      0.00%     78.99% # Class of executed instruction
system.cpu.op_class::SimdSqrt                       0      0.00%     78.99% # Class of executed instruction
system.cpu.op_class::SimdFloatAdd                   0      0.00%     78.99% # Class of executed instruction
system.cpu.op_class::SimdFloatAlu                   0      0.00%     78.99% # Class of executed instruction
system.cpu.op_class::SimdFloatCmp                   0      0.00%     78.99% # Class of executed instruction
system.cpu.op_class::SimdFloatCvt                   0      0.00%     78.99% # Class of executed instruction
system.cpu.op_class::SimdFloatDiv                   0      0.00%     78.99% # Class of executed instruction
system.cpu.op_class::SimdFloatMisc                  0      0.00%     78.99% # Class of executed instruction
system.cpu.op_class::SimdFloatMult                  0      0.00%     78.99% # Class of executed instruction
system.cpu.op_class::SimdFloatMultAcc               0      0.00%     78.99% # Class of executed instruction
system.cpu.op_class::SimdFloatSqrt                  0      0.00%     78.99% # Class of executed instruction
system.cpu.op_class::SimdReduceAdd                  0      0.00%     78.99% # Class of executed instruction
system.cpu.op_class::SimdReduceAlu                  0      0.00%     78.99% # Class of executed instruction
system.cpu.op_class::SimdReduceCmp                  0      0.00%     78.99% # Class of executed instruction
system.cpu.op_class::SimdFloatReduceAdd             0      0.00%     78.99% # Class of executed instruction
system.cpu.op_class::SimdFloatReduceCmp             0      0.00%     78.99% # Class of executed instruction
system.cpu.op_class::SimdAes                        0      0.00%     78.99% # Class of executed instruction
system.cpu.op_class::SimdAesMix                     0      0.00%     78.99% # Class of executed instruction
system.cpu.op_class::SimdSha1Hash                   0      0.00%     78.99% # Class of executed instruction
system.cpu.op_class::SimdSha1Hash2                  0      0.00%     78.99% # Class of executed instruction
system.cpu.op_class::SimdSha256Hash                 0      0.00%     78.99% # Class of executed instruction
system.cpu.op_class::SimdSha256Hash2                0      0.00%     78.99% # Class of executed instruction
system.cpu.op_class::SimdShaSigma2                  0      0.00%     78.99% # Class of executed instruction
system.cpu.op_class::SimdShaSigma3                  0      0.00%     78.99% # Class of executed instruction
system.cpu.op_class::SimdPredAlu                    0      0.00%     78.99% # Class of executed instruction
system.cpu.op_class::MemRead                 22624662     12.28%     91.27% # Class of executed instruction
system.cpu.op_class::MemWrite                14008515      7.60%     98.87% # Class of executed instruction
system.cpu.op_class::FloatMemRead              646279      0.35%     99.22% # Class of executed instruction
system.cpu.op_class::FloatMemWrite            1427690      0.78%    100.00% # Class of executed instruction
system.cpu.op_class::IprAccess                      0      0.00%    100.00% # Class of executed instruction
system.cpu.op_class::InstPrefetch                   0      0.00%    100.00% # Class of executed instruction
system.cpu.op_class::total                  184213554                       # Class of executed instruction
system.cpu.workload.numSyscalls                    93                       # Number of system calls
system.membus.snoop_filter.hit_multi_requests            0                       # Number of requests hitting in the snoop filter with multiple (>1) holders of the requested data.
system.membus.snoop_filter.hit_multi_snoops            0                       # Number of snoops hitting in the snoop filter with multiple (>1) holders of the requested data.
system.membus.snoop_filter.hit_single_requests        20900                       # Number of requests hitting in the snoop filter with a single holder of the requested data.
system.membus.snoop_filter.hit_single_snoops            0                       # Number of snoops hitting in the snoop filter with a single holder of the requested data.
system.membus.snoop_filter.tot_requests        169449                       # Total number of requests made to the snoop filter.
system.membus.snoop_filter.tot_snoops               0                       # Total number of snoops made to the snoop filter.
system.tol2bus.snoop_filter.hit_multi_requests            0                       # Number of requests hitting in the snoop filter with multiple (>1) holders of the requested data.
system.tol2bus.snoop_filter.hit_multi_snoops            0                       # Number of snoops hitting in the snoop filter with multiple (>1) holders of the requested data.
system.tol2bus.snoop_filter.hit_single_requests        22961                       # Number of requests hitting in the snoop filter with a single holder of the requested data.
system.tol2bus.snoop_filter.hit_single_snoops       146512                       # Number of snoops hitting in the snoop filter with a single holder of the requested data.
system.tol2bus.snoop_filter.tot_requests       171594                       # Total number of requests made to the snoop filter.
system.tol2bus.snoop_filter.tot_snoops         146512                       # Total number of snoops made to the snoop filter.
system.clk_domain.clock                          1000                       # Clock period in ticks
system.cpu.dcache.demand_hits::.cpu.data     38590634                       # number of demand (read+write) hits
system.cpu.dcache.demand_hits::total         38590634                       # number of demand (read+write) hits
system.cpu.dcache.overall_hits::.cpu.data     38590634                       # number of overall hits
system.cpu.dcache.overall_hits::total        38590634                       # number of overall hits
system.cpu.dcache.demand_misses::.cpu.data       147583                       # number of demand (read+write) misses
system.cpu.dcache.demand_misses::total         147583                       # number of demand (read+write) misses
system.cpu.dcache.overall_misses::.cpu.data       147583                       # number of overall misses
system.cpu.dcache.overall_misses::total        147583                       # number of overall misses
system.cpu.dcache.demand_miss_latency::.cpu.data  11509760000                       # number of demand (read+write) miss cycles
system.cpu.dcache.demand_miss_latency::total  11509760000                       # number of demand (read+write) miss cycles
system.cpu.dcache.overall_miss_latency::.cpu.data  11509760000                       # number of overall miss cycles
system.cpu.dcache.overall_miss_latency::total  11509760000                       # number of overall miss cycles
system.cpu.dcache.demand_accesses::.cpu.data     38738217                       # number of demand (read+write) accesses
system.cpu.dcache.demand_accesses::total     38738217                       # number of demand (read+write) accesses
system.cpu.dcache.overall_accesses::.cpu.data     38738217                       # number of overall (read+write) accesses
system.cpu.dcache.overall_accesses::total     38738217                       # number of overall (read+write) accesses
system.cpu.dcache.demand_miss_rate::.cpu.data     0.003810                       # miss rate for demand accesses
system.cpu.dcache.demand_miss_rate::total     0.003810                       # miss rate for demand accesses
system.cpu.dcache.overall_miss_rate::.cpu.data     0.003810                       # miss rate for overall accesses
system.cpu.dcache.overall_miss_rate::total     0.003810                       # miss rate for overall accesses
system.cpu.dcache.demand_avg_miss_latency::.cpu.data 77988.386196                       # average overall miss latency
system.cpu.dcache.demand_avg_miss_latency::total 77988.386196                       # average overall miss latency
system.cpu.dcache.overall_avg_miss_latency::.cpu.data 77988.386196                       # average overall miss latency
system.cpu.dcache.overall_avg_miss_latency::total 77988.386196                       # average overall miss latency
system.cpu.dcache.blocked_cycles::no_mshrs            0                       # number of cycles access was blocked
system.cpu.dcache.blocked_cycles::no_targets            0                       # number of cycles access was blocked
system.cpu.dcache.blocked::no_mshrs                 0                       # number of cycles access was blocked
system.cpu.dcache.blocked::no_targets               0                       # number of cycles access was blocked
system.cpu.dcache.avg_blocked_cycles::no_mshrs          nan                       # average number of cycles each access was blocked
system.cpu.dcache.avg_blocked_cycles::no_targets          nan                       # average number of cycles each access was blocked
system.cpu.dcache.writebacks::.writebacks        22835                       # number of writebacks
system.cpu.dcache.writebacks::total             22835                       # number of writebacks
system.cpu.dcache.demand_mshr_misses::.cpu.data       147583                       # number of demand (read+write) MSHR misses
system.cpu.dcache.demand_mshr_misses::total       147583                       # number of demand (read+write) MSHR misses
system.cpu.dcache.overall_mshr_misses::.cpu.data       147583                       # number of overall MSHR misses
system.cpu.dcache.overall_mshr_misses::total       147583                       # number of overall MSHR misses
system.cpu.dcache.demand_mshr_miss_latency::.cpu.data  11362177000                       # number of demand (read+write) MSHR miss cycles
system.cpu.dcache.demand_mshr_miss_latency::total  11362177000                       # number of demand (read+write) MSHR miss cycles
system.cpu.dcache.overall_mshr_miss_latency::.cpu.data  11362177000                       # number of overall MSHR miss cycles
system.cpu.dcache.overall_mshr_miss_latency::total  11362177000                       # number of overall MSHR miss cycles
system.cpu.dcache.demand_mshr_miss_rate::.cpu.data     0.003810                       # mshr miss rate for demand accesses
system.cpu.dcache.demand_mshr_miss_rate::total     0.003810                       # mshr miss rate for demand accesses
system.cpu.dcache.overall_mshr_miss_rate::.cpu.data     0.003810                       # mshr miss rate for overall accesses
system.cpu.dcache.overall_mshr_miss_rate::total     0.003810                       # mshr miss rate for overall accesses
system.cpu.dcache.demand_avg_mshr_miss_latency::.cpu.data 76988.386196                       # average overall mshr miss latency
system.cpu.dcache.demand_avg_mshr_miss_latency::total 76988.386196                       # average overall mshr miss latency
system.cpu.dcache.overall_avg_mshr_miss_latency::.cpu.data 76988.386196                       # average overall mshr miss latency
system.cpu.dcache.overall_avg_mshr_miss_latency::total 76988.386196                       # average overall mshr miss latency
system.cpu.dcache.replacements                  22940                       # number of replacements
system.cpu.dcache.ReadReq_hits::.cpu.data     23293220                       # number of ReadReq hits
system.cpu.dcache.ReadReq_hits::total        23293220                       # number of ReadReq hits
system.cpu.dcache.ReadReq_misses::.cpu.data        10028                       # number of ReadReq misses
system.cpu.dcache.ReadReq_misses::total         10028                       # number of ReadReq misses
system.cpu.dcache.ReadReq_miss_latency::.cpu.data    754313000                       # number of ReadReq miss cycles
system.cpu.dcache.ReadReq_miss_latency::total    754313000                       # number of ReadReq miss cycles
system.cpu.dcache.ReadReq_accesses::.cpu.data     23303248                       # number of ReadReq accesses(hits+misses)
system.cpu.dcache.ReadReq_accesses::total     23303248                       # number of ReadReq accesses(hits+misses)
system.cpu.dcache.ReadReq_miss_rate::.cpu.data     0.000430                       # miss rate for ReadReq accesses
system.cpu.dcache.ReadReq_miss_rate::total     0.000430                       # miss rate for ReadReq accesses
system.cpu.dcache.ReadReq_avg_miss_latency::.cpu.data 75220.682090                       # average ReadReq miss latency
system.cpu.dcache.ReadReq_avg_miss_latency::total 75220.682090                       # average ReadReq miss latency
system.cpu.dcache.ReadReq_mshr_misses::.cpu.data        10028                       # number of ReadReq MSHR misses
system.cpu.dcache.ReadReq_mshr_misses::total        10028                       # number of ReadReq MSHR misses
system.cpu.dcache.ReadReq_mshr_miss_latency::.cpu.data    744285000                       # number of ReadReq MSHR miss cycles
system.cpu.dcache.ReadReq_mshr_miss_latency::total    744285000                       # number of ReadReq MSHR miss cycles
system.cpu.dcache.ReadReq_mshr_miss_rate::.cpu.data     0.000430                       # mshr miss rate for ReadReq accesses
system.cpu.dcache.ReadReq_mshr_miss_rate::total     0.000430                       # mshr miss rate for ReadReq accesses
system.cpu.dcache.ReadReq_avg_mshr_miss_latency::.cpu.data 74220.682090                       # average ReadReq mshr miss latency
system.cpu.dcache.ReadReq_avg_mshr_miss_latency::total 74220.682090                       # average ReadReq mshr miss latency
system.cpu.dcache.WriteReq_hits::.cpu.data     15297414                       # number of WriteReq hits
system.cpu.dcache.WriteReq_hits::total       15297414                       # number of WriteReq hits
system.cpu.dcache.WriteReq_misses::.cpu.data       137555                       # number of WriteReq misses
system.cpu.dcache.WriteReq_misses::total       137555                       # number of WriteReq misses
system.cpu.dcache.WriteReq_miss_latency::.cpu.data  10755447000                       # number of WriteReq miss cycles
system.cpu.dcache.WriteReq_miss_latency::total  10755447000                       # number of WriteReq miss cycles
system.cpu.dcache.WriteReq_accesses::.cpu.data     15434969                       # number of WriteReq accesses(hits+misses)
system.cpu.dcache.WriteReq_accesses::total     15434969                       # number of WriteReq accesses(hits+misses)
system.cpu.dcache.WriteReq_miss_rate::.cpu.data     0.008912                       # miss rate for WriteReq accesses
system.cpu.dcache.WriteReq_miss_rate::total     0.008912                       # miss rate for WriteReq accesses
system.cpu.dcache.WriteReq_avg_miss_latency::.cpu.data 78190.156665                       # average WriteReq miss latency
system.cpu.dcache.WriteReq_avg_miss_latency::total 78190.156665                       # average WriteReq miss latency
system.cpu.dcache.WriteReq_mshr_misses::.cpu.data       137555                       # number of WriteReq MSHR misses
system.cpu.dcache.WriteReq_mshr_misses::total       137555                       # number of WriteReq MSHR misses
system.cpu.dcache.WriteReq_mshr_miss_latency::.cpu.data  10617892000                       # number of WriteReq MSHR miss cycles
system.cpu.dcache.WriteReq_mshr_miss_latency::total  10617892000                       # number of WriteReq MSHR miss cycles
system.cpu.dcache.WriteReq_mshr_miss_rate::.cpu.data     0.008912                       # mshr miss rate for WriteReq accesses
system.cpu.dcache.WriteReq_mshr_miss_rate::total     0.008912                       # mshr miss rate for WriteReq accesses
system.cpu.dcache.WriteReq_avg_mshr_miss_latency::.cpu.data 77190.156665                       # average WriteReq mshr miss latency
system.cpu.dcache.WriteReq_avg_mshr_miss_latency::total 77190.156665                       # average WriteReq mshr miss latency
system.cpu.dcache.power_state.pwrStateResidencyTicks::UNDEFINED 189911125500                       # Cumulative time (in ticks) in various power states
system.cpu.dcache.tags.tagsinuse         92711.510442                       # Cycle average of tags in use
system.cpu.dcache.tags.total_refs            38738217                       # Total number of references to valid blocks.
system.cpu.dcache.tags.sampled_refs            147583                       # Sample count of references to valid blocks.
system.cpu.dcache.tags.avg_refs            262.484277                       # Average number of references to valid blocks.
system.cpu.dcache.tags.warmup_cycle            177500                       # Cycle when the warmup percentage was hit.
system.cpu.dcache.tags.occ_blocks::.cpu.data 92711.510442                       # Average occupied blocks per requestor
system.cpu.dcache.tags.occ_percent::.cpu.data     0.707333                       # Average percentage of cache occupancy
system.cpu.dcache.tags.occ_percent::total     0.707333                       # Average percentage of cache occupancy
system.cpu.dcache.tags.occ_task_id_blocks::1024       124643                       # Occupied blocks per task id
system.cpu.dcache.tags.age_task_id_blocks_1024::0            4                       # Occupied blocks per task id
system.cpu.dcache.tags.age_task_id_blocks_1024::1           46                       # Occupied blocks per task id
system.cpu.dcache.tags.age_task_id_blocks_1024::2          470                       # Occupied blocks per task id
system.cpu.dcache.tags.age_task_id_blocks_1024::3         4767                       # Occupied blocks per task id
system.cpu.dcache.tags.age_task_id_blocks_1024::4       119356                       # Occupied blocks per task id
system.cpu.dcache.tags.occ_task_id_percent::1024     0.950951                       # Percentage of cache occupancy per task id
system.cpu.dcache.tags.tag_accesses          77624017                       # Number of tag accesses
system.cpu.dcache.tags.data_accesses         77624017                       # Number of data accesses
system.cpu.dcache.tags.power_state.pwrStateResidencyTicks::UNDEFINED 189911125500                       # Cumulative time (in ticks) in various power states
system.cpu.dtb.rdAccesses                    23303250                       # TLB accesses on read requests
system.cpu.dtb.wrAccesses                    15436210                       # TLB accesses on write requests
system.cpu.dtb.rdMisses                         21891                       # TLB misses on read requests
system.cpu.dtb.wrMisses                          2489                       # TLB misses on write requests
system.cpu.dtb.walker.power_state.pwrStateResidencyTicks::UNDEFINED 189911125500                       # Cumulative time (in ticks) in various power states
system.cpu.dtb_walker_cache.blocked_cycles::no_mshrs            0                       # number of cycles access was blocked
system.cpu.dtb_walker_cache.blocked_cycles::no_targets            0                       # number of cycles access was blocked
system.cpu.dtb_walker_cache.blocked::no_mshrs            0                       # number of cycles access was blocked
system.cpu.dtb_walker_cache.blocked::no_targets            0                       # number of cycles access was blocked
system.cpu.dtb_walker_cache.avg_blocked_cycles::no_mshrs          nan                       # average number of cycles each access was blocked
system.cpu.dtb_walker_cache.avg_blocked_cycles::no_targets          nan                       # average number of cycles each access was blocked
system.cpu.dtb_walker_cache.replacements            0                       # number of replacements
system.cpu.dtb_walker_cache.power_state.pwrStateResidencyTicks::UNDEFINED 189911125500                       # Cumulative time (in ticks) in various power states
system.cpu.dtb_walker_cache.tags.tagsinuse            0                       # Cycle average of tags in use
system.cpu.dtb_walker_cache.tags.total_refs            0                       # Total number of references to valid blocks.
system.cpu.dtb_walker_cache.tags.sampled_refs            0                       # Sample count of references to valid blocks.
system.cpu.dtb_walker_cache.tags.avg_refs          nan                       # Average number of references to valid blocks.
system.cpu.dtb_walker_cache.tags.warmup_cycle            0                       # Cycle when the warmup percentage was hit.
system.cpu.dtb_walker_cache.tags.tag_accesses            0                       # Number of tag accesses
system.cpu.dtb_walker_cache.tags.data_accesses            0                       # Number of data accesses
system.cpu.dtb_walker_cache.tags.power_state.pwrStateResidencyTicks::UNDEFINED 189911125500                       # Cumulative time (in ticks) in various power states
system.cpu.icache.demand_hits::.cpu.inst    139744651                       # number of demand (read+write) hits
system.cpu.icache.demand_hits::total        139744651                       # number of demand (read+write) hits
system.cpu.icache.overall_hits::.cpu.inst    139744651                       # number of overall hits
system.cpu.icache.overall_hits::total       139744651                       # number of overall hits
system.cpu.icache.demand_misses::.cpu.inst         1050                       # number of demand (read+write) misses
system.cpu.icache.demand_misses::total           1050                       # number of demand (read+write) misses
system.cpu.icache.overall_misses::.cpu.inst         1050                       # number of overall misses
system.cpu.icache.overall_misses::total          1050                       # number of overall misses
system.cpu.icache.demand_miss_latency::.cpu.inst     82304000                       # number of demand (read+write) miss cycles
system.cpu.icache.demand_miss_latency::total     82304000                       # number of demand (read+write) miss cycles
system.cpu.icache.overall_miss_latency::.cpu.inst     82304000                       # number of overall miss cycles
system.cpu.icache.overall_miss_latency::total     82304000                       # number of overall miss cycles
system.cpu.icache.demand_accesses::.cpu.inst    139745701                       # number of demand (read+write) accesses
system.cpu.icache.demand_accesses::total    139745701                       # number of demand (read+write) accesses
system.cpu.icache.overall_accesses::.cpu.inst    139745701                       # number of overall (read+write) accesses
system.cpu.icache.overall_accesses::total    139745701                       # number of overall (read+write) accesses
system.cpu.icache.demand_miss_rate::.cpu.inst     0.000008                       # miss rate for demand accesses
system.cpu.icache.demand_miss_rate::total     0.000008                       # miss rate for demand accesses
system.cpu.icache.overall_miss_rate::.cpu.inst     0.000008                       # miss rate for overall accesses
system.cpu.icache.overall_miss_rate::total     0.000008                       # miss rate for overall accesses
system.cpu.icache.demand_avg_miss_latency::.cpu.inst 78384.761905                       # average overall miss latency
system.cpu.icache.demand_avg_miss_latency::total 78384.761905                       # average overall miss latency
system.cpu.icache.overall_avg_miss_latency::.cpu.inst 78384.761905                       # average overall miss latency
system.cpu.icache.overall_avg_miss_latency::total 78384.761905                       # average overall miss latency
system.cpu.icache.blocked_cycles::no_mshrs            0                       # number of cycles access was blocked
system.cpu.icache.blocked_cycles::no_targets            0                       # number of cycles access was blocked
system.cpu.icache.blocked::no_mshrs                 0                       # number of cycles access was blocked
system.cpu.icache.blocked::no_targets               0                       # number of cycles access was blocked
system.cpu.icache.avg_blocked_cycles::no_mshrs          nan                       # average number of cycles each access was blocked
system.cpu.icache.avg_blocked_cycles::no_targets          nan                       # average number of cycles each access was blocked
system.cpu.icache.writebacks::.writebacks           21                       # number of writebacks
system.cpu.icache.writebacks::total                21                       # number of writebacks
system.cpu.icache.demand_mshr_misses::.cpu.inst         1050                       # number of demand (read+write) MSHR misses
system.cpu.icache.demand_mshr_misses::total         1050                       # number of demand (read+write) MSHR misses
system.cpu.icache.overall_mshr_misses::.cpu.inst         1050                       # number of overall MSHR misses
system.cpu.icache.overall_mshr_misses::total         1050                       # number of overall MSHR misses
system.cpu.icache.demand_mshr_miss_latency::.cpu.inst     81254000                       # number of demand (read+write) MSHR miss cycles
system.cpu.icache.demand_mshr_miss_latency::total     81254000                       # number of demand (read+write) MSHR miss cycles
system.cpu.icache.overall_mshr_miss_latency::.cpu.inst     81254000                       # number of overall MSHR miss cycles
system.cpu.icache.overall_mshr_miss_latency::total     81254000                       # number of overall MSHR miss cycles
system.cpu.icache.demand_mshr_miss_rate::.cpu.inst     0.000008                       # mshr miss rate for demand accesses
system.cpu.icache.demand_mshr_miss_rate::total     0.000008                       # mshr miss rate for demand accesses
system.cpu.icache.overall_mshr_miss_rate::.cpu.inst     0.000008                       # mshr miss rate for overall accesses
system.cpu.icache.overall_mshr_miss_rate::total     0.000008                       # mshr miss rate for overall accesses
system.cpu.icache.demand_avg_mshr_miss_latency::.cpu.inst 77384.761905                       # average overall mshr miss latency
system.cpu.icache.demand_avg_mshr_miss_latency::total 77384.761905                       # average overall mshr miss latency
system.cpu.icache.overall_avg_mshr_miss_latency::.cpu.inst 77384.761905                       # average overall mshr miss latency
system.cpu.icache.overall_avg_mshr_miss_latency::total 77384.761905                       # average overall mshr miss latency
system.cpu.icache.replacements                     21                       # number of replacements
system.cpu.icache.ReadReq_hits::.cpu.inst    139744651                       # number of ReadReq hits
system.cpu.icache.ReadReq_hits::total       139744651                       # number of ReadReq hits
system.cpu.icache.ReadReq_misses::.cpu.inst         1050                       # number of ReadReq misses
system.cpu.icache.ReadReq_misses::total          1050                       # number of ReadReq misses
system.cpu.icache.ReadReq_miss_latency::.cpu.inst     82304000                       # number of ReadReq miss cycles
system.cpu.icache.ReadReq_miss_latency::total     82304000                       # number of ReadReq miss cycles
system.cpu.icache.ReadReq_accesses::.cpu.inst    139745701                       # number of ReadReq accesses(hits+misses)
system.cpu.icache.ReadReq_accesses::total    139745701                       # number of ReadReq accesses(hits+misses)
system.cpu.icache.ReadReq_miss_rate::.cpu.inst     0.000008                       # miss rate for ReadReq accesses
system.cpu.icache.ReadReq_miss_rate::total     0.000008                       # miss rate for ReadReq accesses
system.cpu.icache.ReadReq_avg_miss_latency::.cpu.inst 78384.761905                       # average ReadReq miss latency
system.cpu.icache.ReadReq_avg_miss_latency::total 78384.761905                       # average ReadReq miss latency
system.cpu.icache.ReadReq_mshr_misses::.cpu.inst         1050                       # number of ReadReq MSHR misses
system.cpu.icache.ReadReq_mshr_misses::total         1050                       # number of ReadReq MSHR misses
system.cpu.icache.ReadReq_mshr_miss_latency::.cpu.inst     81254000                       # number of ReadReq MSHR miss cycles
system.cpu.icache.ReadReq_mshr_miss_latency::total     81254000                       # number of ReadReq MSHR miss cycles
system.cpu.icache.ReadReq_mshr_miss_rate::.cpu.inst     0.000008                       # mshr miss rate for ReadReq accesses
system.cpu.icache.ReadReq_mshr_miss_rate::total     0.000008                       # mshr miss rate for ReadReq accesses
system.cpu.icache.ReadReq_avg_mshr_miss_latency::.cpu.inst 77384.761905                       # average ReadReq mshr miss latency
system.cpu.icache.ReadReq_avg_mshr_miss_latency::total 77384.761905                       # average ReadReq mshr miss latency
system.cpu.icache.power_state.pwrStateResidencyTicks::UNDEFINED 189911125500                       # Cumulative time (in ticks) in various power states
system.cpu.icache.tags.tagsinuse          1024.473118                       # Cycle average of tags in use
system.cpu.icache.tags.total_refs           139745701                       # Total number of references to valid blocks.
system.cpu.icache.tags.sampled_refs              1050                       # Sample count of references to valid blocks.
system.cpu.icache.tags.avg_refs          133091.143810                       # Average number of references to valid blocks.
system.cpu.icache.tags.warmup_cycle             87500                       # Cycle when the warmup percentage was hit.
system.cpu.icache.tags.occ_blocks::.cpu.inst  1024.473118                       # Average occupied blocks per requestor
system.cpu.icache.tags.occ_percent::.cpu.inst     0.250116                       # Average percentage of cache occupancy
system.cpu.icache.tags.occ_percent::total     0.250116                       # Average percentage of cache occupancy
system.cpu.icache.tags.occ_task_id_blocks::1024         1029                       # Occupied blocks per task id
system.cpu.icache.tags.age_task_id_blocks_1024::4         1029                       # Occupied blocks per task id
system.cpu.icache.tags.occ_task_id_percent::1024     0.251221                       # Percentage of cache occupancy per task id
system.cpu.icache.tags.tag_accesses         279492452                       # Number of tag accesses
system.cpu.icache.tags.data_accesses        279492452                       # Number of data accesses
system.cpu.icache.tags.power_state.pwrStateResidencyTicks::UNDEFINED 189911125500                       # Cumulative time (in ticks) in various power states
system.cpu.interrupts.clk_domain.clock           8000                       # Clock period in ticks
system.cpu.itb.rdAccesses                           0                       # TLB accesses on read requests
system.cpu.itb.wrAccesses                   139745701                       # TLB accesses on write requests
system.cpu.itb.rdMisses                             0                       # TLB misses on read requests
system.cpu.itb.wrMisses                            51                       # TLB misses on write requests
system.cpu.itb.walker.power_state.pwrStateResidencyTicks::UNDEFINED 189911125500                       # Cumulative time (in ticks) in various power states
system.cpu.itb_walker_cache.blocked_cycles::no_mshrs            0                       # number of cycles access was blocked
system.cpu.itb_walker_cache.blocked_cycles::no_targets            0                       # number of cycles access was blocked
system.cpu.itb_walker_cache.blocked::no_mshrs            0                       # number of cycles access was blocked
system.cpu.itb_walker_cache.blocked::no_targets            0                       # number of cycles access was blocked
system.cpu.itb_walker_cache.avg_blocked_cycles::no_mshrs          nan                       # average number of cycles each access was blocked
system.cpu.itb_walker_cache.avg_blocked_cycles::no_targets          nan                       # average number of cycles each access was blocked
system.cpu.itb_walker_cache.replacements            0                       # number of replacements
system.cpu.itb_walker_cache.power_state.pwrStateResidencyTicks::UNDEFINED 189911125500                       # Cumulative time (in ticks) in various power states
system.cpu.itb_walker_cache.tags.tagsinuse            0                       # Cycle average of tags in use
system.cpu.itb_walker_cache.tags.total_refs            0                       # Total number of references to valid blocks.
system.cpu.itb_walker_cache.tags.sampled_refs            0                       # Sample count of references to valid blocks.
system.cpu.itb_walker_cache.tags.avg_refs          nan                       # Average number of references to valid blocks.
system.cpu.itb_walker_cache.tags.warmup_cycle            0                       # Cycle when the warmup percentage was hit.
system.cpu.itb_walker_cache.tags.tag_accesses            0                       # Number of tag accesses
system.cpu.itb_walker_cache.tags.data_accesses            0                       # Number of data accesses
system.cpu.itb_walker_cache.tags.power_state.pwrStateResidencyTicks::UNDEFINED 189911125500                       # Cumulative time (in ticks) in various power states
system.cpu.power_state.pwrStateResidencyTicks::ON 189911125500                       # Cumulative time (in ticks) in various power states
system.cpu.thread_0.numInsts                        0                       # Number of Instructions committed
system.cpu.thread_0.numOps                          0                       # Number of Ops committed
system.cpu.thread_0.numMemRefs                      0                       # Number of Memory References
system.cpu_clk_domain.clock                       500                       # Clock period in ticks
system.cpu_voltage_domain.voltage                   1                       # Voltage in Volts
system.l2.demand_hits::.cpu.data                   84                       # number of demand (read+write) hits
system.l2.demand_hits::total                       84                       # number of demand (read+write) hits
system.l2.overall_hits::.cpu.data                  84                       # number of overall hits
system.l2.overall_hits::total                      84                       # number of overall hits
system.l2.demand_misses::.cpu.inst               1050                       # number of demand (read+write) misses
system.l2.demand_misses::.cpu.data             147499                       # number of demand (read+write) misses
system.l2.demand_misses::total                 148549                       # number of demand (read+write) misses
system.l2.overall_misses::.cpu.inst              1050                       # number of overall misses
system.l2.overall_misses::.cpu.data            147499                       # number of overall misses
system.l2.overall_misses::total                148549                       # number of overall misses
system.l2.demand_miss_latency::.cpu.inst     79679000                       # number of demand (read+write) miss cycles
system.l2.demand_miss_latency::.cpu.data  11139920500                       # number of demand (read+write) miss cycles
system.l2.demand_miss_latency::total      11219599500                       # number of demand (read+write) miss cycles
system.l2.overall_miss_latency::.cpu.inst     79679000                       # number of overall miss cycles
system.l2.overall_miss_latency::.cpu.data  11139920500                       # number of overall miss cycles
system.l2.overall_miss_latency::total     11219599500                       # number of overall miss cycles
system.l2.demand_accesses::.cpu.inst             1050                       # number of demand (read+write) accesses
system.l2.demand_accesses::.cpu.data           147583                       # number of demand (read+write) accesses
system.l2.demand_accesses::total               148633                       # number of demand (read+write) accesses
system.l2.overall_accesses::.cpu.inst            1050                       # number of overall (read+write) accesses
system.l2.overall_accesses::.cpu.data          147583                       # number of overall (read+write) accesses
system.l2.overall_accesses::total              148633                       # number of overall (read+write) accesses
system.l2.demand_miss_rate::.cpu.inst               1                       # miss rate for demand accesses
system.l2.demand_miss_rate::.cpu.data        0.999431                       # miss rate for demand accesses
system.l2.demand_miss_rate::total            0.999435                       # miss rate for demand accesses
system.l2.overall_miss_rate::.cpu.inst              1                       # miss rate for overall accesses
system.l2.overall_miss_rate::.cpu.data       0.999431                       # miss rate for overall accesses
system.l2.overall_miss_rate::total           0.999435                       # miss rate for overall accesses
system.l2.demand_avg_miss_latency::.cpu.inst 75884.761905                       # average overall miss latency
system.l2.demand_avg_miss_latency::.cpu.data 75525.396782                       # average overall miss latency
system.l2.demand_avg_miss_latency::total 75527.936910                       # average overall miss latency
system.l2.overall_avg_miss_latency::.cpu.inst 75884.761905                       # average overall miss latency
system.l2.overall_avg_miss_latency::.cpu.data 75525.396782                       # average overall miss latency
system.l2.overall_avg_miss_latency::total 75527.936910                       # average overall miss latency
system.l2.blocked_cycles::no_mshrs                  0                       # number of cycles access was blocked
system.l2.blocked_cycles::no_targets                0                       # number of cycles access was blocked
system.l2.blocked::no_mshrs                         0                       # number of cycles access was blocked
system.l2.blocked::no_targets                       0                       # number of cycles access was blocked
system.l2.avg_blocked_cycles::no_mshrs            nan                       # average number of cycles each access was blocked
system.l2.avg_blocked_cycles::no_targets          nan                       # average number of cycles each access was blocked
system.l2.writebacks::.writebacks               20774                       # number of writebacks
system.l2.writebacks::total                     20774                       # number of writebacks
system.l2.demand_mshr_misses::.cpu.inst          1050                       # number of demand (read+write) MSHR misses
system.l2.demand_mshr_misses::.cpu.data        147499                       # number of demand (read+write) MSHR misses
system.l2.demand_mshr_misses::total            148549                       # number of demand (read+write) MSHR misses
system.l2.overall_mshr_misses::.cpu.inst         1050                       # number of overall MSHR misses
system.l2.overall_mshr_misses::.cpu.data       147499                       # number of overall MSHR misses
system.l2.overall_mshr_misses::total           148549                       # number of overall MSHR misses
system.l2.demand_mshr_miss_latency::.cpu.inst     69179000                       # number of demand (read+write) MSHR miss cycles
system.l2.demand_mshr_miss_latency::.cpu.data   9664930500                       # number of demand (read+write) MSHR miss cycles
system.l2.demand_mshr_miss_latency::total   9734109500                       # number of demand (read+write) MSHR miss cycles
system.l2.overall_mshr_miss_latency::.cpu.inst     69179000                       # number of overall MSHR miss cycles
system.l2.overall_mshr_miss_latency::.cpu.data   9664930500                       # number of overall MSHR miss cycles
system.l2.overall_mshr_miss_latency::total   9734109500                       # number of overall MSHR miss cycles
system.l2.demand_mshr_miss_rate::.cpu.inst            1                       # mshr miss rate for demand accesses
system.l2.demand_mshr_miss_rate::.cpu.data     0.999431                       # mshr miss rate for demand accesses
system.l2.demand_mshr_miss_rate::total       0.999435                       # mshr miss rate for demand accesses
system.l2.overall_mshr_miss_rate::.cpu.inst            1                       # mshr miss rate for overall accesses
system.l2.overall_mshr_miss_rate::.cpu.data     0.999431                       # mshr miss rate for overall accesses
system.l2.overall_mshr_miss_rate::total      0.999435                       # mshr miss rate for overall accesses
system.l2.demand_avg_mshr_miss_latency::.cpu.inst 65884.761905                       # average overall mshr miss latency
system.l2.demand_avg_mshr_miss_latency::.cpu.data 65525.396782                       # average overall mshr miss latency
system.l2.demand_avg_mshr_miss_latency::total 65527.936910                       # average overall mshr miss latency
system.l2.overall_avg_mshr_miss_latency::.cpu.inst 65884.761905                       # average overall mshr miss latency
system.l2.overall_avg_mshr_miss_latency::.cpu.data 65525.396782                       # average overall mshr miss latency
system.l2.overall_avg_mshr_miss_latency::total 65527.936910                       # average overall mshr miss latency
system.l2.replacements                         167307                       # number of replacements
system.l2.WritebackDirty_hits::.writebacks        22835                       # number of WritebackDirty hits
system.l2.WritebackDirty_hits::total            22835                       # number of WritebackDirty hits
system.l2.WritebackDirty_accesses::.writebacks        22835                       # number of WritebackDirty accesses(hits+misses)
system.l2.WritebackDirty_accesses::total        22835                       # number of WritebackDirty accesses(hits+misses)
system.l2.WritebackClean_hits::.writebacks           21                       # number of WritebackClean hits
system.l2.WritebackClean_hits::total               21                       # number of WritebackClean hits
system.l2.WritebackClean_accesses::.writebacks           21                       # number of WritebackClean accesses(hits+misses)
system.l2.WritebackClean_accesses::total           21                       # number of WritebackClean accesses(hits+misses)
system.l2.CleanEvict_mshr_misses::.writebacks          105                       # number of CleanEvict MSHR misses
system.l2.CleanEvict_mshr_misses::total           105                       # number of CleanEvict MSHR misses
system.l2.CleanEvict_mshr_miss_rate::.writebacks          inf                       # mshr miss rate for CleanEvict accesses
system.l2.CleanEvict_mshr_miss_rate::total          inf                       # mshr miss rate for CleanEvict accesses
system.l2.ReadExReq_misses::.cpu.data          137555                       # number of ReadExReq misses
system.l2.ReadExReq_misses::total              137555                       # number of ReadExReq misses
system.l2.ReadExReq_miss_latency::.cpu.data  10411559500                       # number of ReadExReq miss cycles
system.l2.ReadExReq_miss_latency::total   10411559500                       # number of ReadExReq miss cycles
system.l2.ReadExReq_accesses::.cpu.data        137555                       # number of ReadExReq accesses(hits+misses)
system.l2.ReadExReq_accesses::total            137555                       # number of ReadExReq accesses(hits+misses)
system.l2.ReadExReq_miss_rate::.cpu.data            1                       # miss rate for ReadExReq accesses
system.l2.ReadExReq_miss_rate::total                1                       # miss rate for ReadExReq accesses
system.l2.ReadExReq_avg_miss_latency::.cpu.data 75690.156665                       # average ReadExReq miss latency
system.l2.ReadExReq_avg_miss_latency::total 75690.156665                       # average ReadExReq miss latency
system.l2.ReadExReq_mshr_misses::.cpu.data       137555                       # number of ReadExReq MSHR misses
system.l2.ReadExReq_mshr_misses::total         137555                       # number of ReadExReq MSHR misses
system.l2.ReadExReq_mshr_miss_latency::.cpu.data   9036009500                       # number of ReadExReq MSHR miss cycles
system.l2.ReadExReq_mshr_miss_latency::total   9036009500                       # number of ReadExReq MSHR miss cycles
system.l2.ReadExReq_mshr_miss_rate::.cpu.data            1                       # mshr miss rate for ReadExReq accesses
system.l2.ReadExReq_mshr_miss_rate::total            1                       # mshr miss rate for ReadExReq accesses
system.l2.ReadExReq_avg_mshr_miss_latency::.cpu.data 65690.156665                       # average ReadExReq mshr miss latency
system.l2.ReadExReq_avg_mshr_miss_latency::total 65690.156665                       # average ReadExReq mshr miss latency
system.l2.ReadCleanReq_misses::.cpu.inst         1050                       # number of ReadCleanReq misses
system.l2.ReadCleanReq_misses::total             1050                       # number of ReadCleanReq misses
system.l2.ReadCleanReq_miss_latency::.cpu.inst     79679000                       # number of ReadCleanReq miss cycles
system.l2.ReadCleanReq_miss_latency::total     79679000                       # number of ReadCleanReq miss cycles
system.l2.ReadCleanReq_accesses::.cpu.inst         1050                       # number of ReadCleanReq accesses(hits+misses)
system.l2.ReadCleanReq_accesses::total           1050                       # number of ReadCleanReq accesses(hits+misses)
system.l2.ReadCleanReq_miss_rate::.cpu.inst            1                       # miss rate for ReadCleanReq accesses
system.l2.ReadCleanReq_miss_rate::total             1                       # miss rate for ReadCleanReq accesses
system.l2.ReadCleanReq_avg_miss_latency::.cpu.inst 75884.761905                       # average ReadCleanReq miss latency
system.l2.ReadCleanReq_avg_miss_latency::total 75884.761905                       # average ReadCleanReq miss latency
system.l2.ReadCleanReq_mshr_misses::.cpu.inst         1050                       # number of ReadCleanReq MSHR misses
system.l2.ReadCleanReq_mshr_misses::total         1050                       # number of ReadCleanReq MSHR misses
system.l2.ReadCleanReq_mshr_miss_latency::.cpu.inst     69179000                       # number of ReadCleanReq MSHR miss cycles
system.l2.ReadCleanReq_mshr_miss_latency::total     69179000                       # number of ReadCleanReq MSHR miss cycles
system.l2.ReadCleanReq_mshr_miss_rate::.cpu.inst            1                       # mshr miss rate for ReadCleanReq accesses
system.l2.ReadCleanReq_mshr_miss_rate::total            1                       # mshr miss rate for ReadCleanReq accesses
system.l2.ReadCleanReq_avg_mshr_miss_latency::.cpu.inst 65884.761905                       # average ReadCleanReq mshr miss latency
system.l2.ReadCleanReq_avg_mshr_miss_latency::total 65884.761905                       # average ReadCleanReq mshr miss latency
system.l2.ReadSharedReq_hits::.cpu.data            84                       # number of ReadSharedReq hits
system.l2.ReadSharedReq_hits::total                84                       # number of ReadSharedReq hits
system.l2.ReadSharedReq_misses::.cpu.data         9944                       # number of ReadSharedReq misses
system.l2.ReadSharedReq_misses::total            9944                       # number of ReadSharedReq misses
system.l2.ReadSharedReq_miss_latency::.cpu.data    728361000                       # number of ReadSharedReq miss cycles
system.l2.ReadSharedReq_miss_latency::total    728361000                       # number of ReadSharedReq miss cycles
system.l2.ReadSharedReq_accesses::.cpu.data        10028                       # number of ReadSharedReq accesses(hits+misses)
system.l2.ReadSharedReq_accesses::total         10028                       # number of ReadSharedReq accesses(hits+misses)
system.l2.ReadSharedReq_miss_rate::.cpu.data     0.991623                       # miss rate for ReadSharedReq accesses
system.l2.ReadSharedReq_miss_rate::total     0.991623                       # miss rate for ReadSharedReq accesses
system.l2.ReadSharedReq_avg_miss_latency::.cpu.data 73246.279163                       # average ReadSharedReq miss latency
system.l2.ReadSharedReq_avg_miss_latency::total 73246.279163                       # average ReadSharedReq miss latency
system.l2.ReadSharedReq_mshr_misses::.cpu.data         9944                       # number of ReadSharedReq MSHR misses
system.l2.ReadSharedReq_mshr_misses::total         9944                       # number of ReadSharedReq MSHR misses
system.l2.ReadSharedReq_mshr_miss_latency::.cpu.data    628921000                       # number of ReadSharedReq MSHR miss cycles
system.l2.ReadSharedReq_mshr_miss_latency::total    628921000                       # number of ReadSharedReq MSHR miss cycles
system.l2.ReadSharedReq_mshr_miss_rate::.cpu.data     0.991623                       # mshr miss rate for ReadSharedReq accesses
system.l2.ReadSharedReq_mshr_miss_rate::total     0.991623                       # mshr miss rate for ReadSharedReq accesses
system.l2.ReadSharedReq_avg_mshr_miss_latency::.cpu.data 63246.279163                       # average ReadSharedReq mshr miss latency
system.l2.ReadSharedReq_avg_mshr_miss_latency::total 63246.279163                       # average ReadSharedReq mshr miss latency
system.l2.power_state.pwrStateResidencyTicks::UNDEFINED 189911125500                       # Cumulative time (in ticks) in various power states
system.l2.tags.tagsinuse                  4083.132582                       # Cycle average of tags in use
system.l2.tags.total_refs                      171489                       # Total number of references to valid blocks.
system.l2.tags.sampled_refs                    171403                       # Sample count of references to valid blocks.
system.l2.tags.avg_refs                      1.000502                       # Average number of references to valid blocks.
system.l2.tags.warmup_cycle                     77000                       # Cycle when the warmup percentage was hit.
system.l2.tags.occ_blocks::.writebacks     537.324502                       # Average occupied blocks per requestor
system.l2.tags.occ_blocks::.cpu.inst         6.330228                       # Average occupied blocks per requestor
system.l2.tags.occ_blocks::.cpu.data      3539.477852                       # Average occupied blocks per requestor
system.l2.tags.occ_percent::.writebacks      0.131183                       # Average percentage of cache occupancy
system.l2.tags.occ_percent::.cpu.inst        0.001545                       # Average percentage of cache occupancy
system.l2.tags.occ_percent::.cpu.data        0.864130                       # Average percentage of cache occupancy
system.l2.tags.occ_percent::total            0.996859                       # Average percentage of cache occupancy
system.l2.tags.occ_task_id_blocks::1024          4096                       # Occupied blocks per task id
system.l2.tags.age_task_id_blocks_1024::0            8                       # Occupied blocks per task id
system.l2.tags.age_task_id_blocks_1024::1           92                       # Occupied blocks per task id
system.l2.tags.age_task_id_blocks_1024::2          849                       # Occupied blocks per task id
system.l2.tags.age_task_id_blocks_1024::3         3147                       # Occupied blocks per task id
system.l2.tags.occ_task_id_percent::1024            1                       # Percentage of cache occupancy per task id
system.l2.tags.tag_accesses                    514591                       # Number of tag accesses
system.l2.tags.data_accesses                   514591                       # Number of data accesses
system.l2.tags.power_state.pwrStateResidencyTicks::UNDEFINED 189911125500                       # Cumulative time (in ticks) in various power states
system.mem_ctrls.avgPriority_.writebacks::samples     15952.00                       # Average QoS priority value for accepted requests
system.mem_ctrls.avgPriority_.cpu.inst::samples      1050.00                       # Average QoS priority value for accepted requests
system.mem_ctrls.avgPriority_.cpu.data::samples    147499.00                       # Average QoS priority value for accepted requests
system.mem_ctrls.priorityMinLatency      0.000000018750                       # per QoS priority minimum request to response latency (s)
system.mem_ctrls.priorityMaxLatency      0.017104458500                       # per QoS priority maximum request to response latency (s)
system.mem_ctrls.numReadWriteTurnArounds          894                       # Number of turnarounds from READ to WRITE
system.mem_ctrls.numWriteReadTurnArounds          894                       # Number of turnarounds from WRITE to READ
system.mem_ctrls.numStayReadState              366428                       # Number of times bus staying in READ state
system.mem_ctrls.numStayWriteState              15048                       # Number of times bus staying in WRITE state
system.mem_ctrls.readReqs                      148549                       # Number of read requests accepted
system.mem_ctrls.writeReqs                      20774                       # Number of write requests accepted
system.mem_ctrls.readBursts                    148549                       # Number of controller read bursts, including those serviced by the write queue
system.mem_ctrls.writeBursts                    20774                       # Number of controller write bursts, including those merged in the write queue
system.mem_ctrls.servicedByWrQ                      0                       # Number of controller read bursts serviced by the write queue
system.mem_ctrls.mergedWrBursts                  4822                       # Number of controller write bursts merged with an existing one
system.mem_ctrls.neitherReadNorWriteReqs            0                       # Number of requests that are neither read nor write
system.mem_ctrls.avgRdQLen                       1.00                       # Average read queue length when enqueuing
system.mem_ctrls.avgWrQLen                       7.11                       # Average write queue length when enqueuing
system.mem_ctrls.numRdRetry                         0                       # Number of times read queue was full causing retry
system.mem_ctrls.numWrRetry                         0                       # Number of times write queue was full causing retry
system.mem_ctrls.readPktSize::0                     0                       # Read request sizes (log2)
system.mem_ctrls.readPktSize::1                     0                       # Read request sizes (log2)
system.mem_ctrls.readPktSize::2                     0                       # Read request sizes (log2)
system.mem_ctrls.readPktSize::3                     0                       # Read request sizes (log2)
system.mem_ctrls.readPktSize::4                     0                       # Read request sizes (log2)
system.mem_ctrls.readPktSize::5                148549                       # Read request sizes (log2)
system.mem_ctrls.writePktSize::0                    0                       # Write request sizes (log2)
system.mem_ctrls.writePktSize::1                    0                       # Write request sizes (log2)
system.mem_ctrls.writePktSize::2                    0                       # Write request sizes (log2)
system.mem_ctrls.writePktSize::3                    0                       # Write request sizes (log2)
system.mem_ctrls.writePktSize::4                    0                       # Write request sizes (log2)
system.mem_ctrls.writePktSize::5                20774                       # Write request sizes (log2)
system.mem_ctrls.rdQLenPdf::0                  148549                       # What read queue length does an incoming req see
system.mem_ctrls.rdQLenPdf::1                       0                       # What read queue length does an incoming req see
system.mem_ctrls.rdQLenPdf::2                       0                       # What read queue length does an incoming req see
system.mem_ctrls.rdQLenPdf::3                       0                       # What read queue length does an incoming req see
system.mem_ctrls.rdQLenPdf::4                       0                       # What read queue length does an incoming req see
system.mem_ctrls.rdQLenPdf::5                       0                       # What read queue length does an incoming req see
system.mem_ctrls.rdQLenPdf::6                       0                       # What read queue length does an incoming req see
system.mem_ctrls.rdQLenPdf::7                       0                       # What read queue length does an incoming req see
system.mem_ctrls.rdQLenPdf::8                       0                       # What read queue length does an incoming req see
system.mem_ctrls.rdQLenPdf::9                       0                       # What read queue length does an incoming req see
system.mem_ctrls.rdQLenPdf::10                      0                       # What read queue length does an incoming req see
system.mem_ctrls.rdQLenPdf::11                      0                       # What read queue length does an incoming req see
system.mem_ctrls.rdQLenPdf::12                      0                       # What read queue length does an incoming req see
system.mem_ctrls.rdQLenPdf::13                      0                       # What read queue length does an incoming req see
system.mem_ctrls.rdQLenPdf::14                      0                       # What read queue length does an incoming req see
system.mem_ctrls.rdQLenPdf::15                      0                       # What read queue length does an incoming req see
system.mem_ctrls.rdQLenPdf::16                      0                       # What read queue length does an incoming req see
system.mem_ctrls.rdQLenPdf::17                      0                       # What read queue length does an incoming req see
system.mem_ctrls.rdQLenPdf::18                      0                       # What read queue length does an incoming req see
system.mem_ctrls.rdQLenPdf::19                      0                       # What read queue length does an incoming req see
system.mem_ctrls.rdQLenPdf::20                      0                       # What read queue length does an incoming req see
system.mem_ctrls.rdQLenPdf::21                      0                       # What read queue length does an incoming req see
system.mem_ctrls.rdQLenPdf::22                      0                       # What read queue length does an incoming req see
system.mem_ctrls.rdQLenPdf::23                      0                       # What read queue length does an incoming req see
system.mem_ctrls.rdQLenPdf::24                      0                       # What read queue length does an incoming req see
system.mem_ctrls.rdQLenPdf::25                      0                       # What read queue length does an incoming req see
system.mem_ctrls.rdQLenPdf::26                      0                       # What read queue length does an incoming req see
system.mem_ctrls.rdQLenPdf::27                      0                       # What read queue length does an incoming req see
system.mem_ctrls.rdQLenPdf::28                      0                       # What read queue length does an incoming req see
system.mem_ctrls.rdQLenPdf::29                      0                       # What read queue length does an incoming req see
system.mem_ctrls.rdQLenPdf::30                      0                       # What read queue length does an incoming req see
system.mem_ctrls.rdQLenPdf::31                      0                       # What read queue length does an incoming req see
system.mem_ctrls.wrQLenPdf::0                       1                       # What write queue length does an incoming req see
system.mem_ctrls.wrQLenPdf::1                       1                       # What write queue length does an incoming req see
system.mem_ctrls.wrQLenPdf::2                       1                       # What write queue length does an incoming req see
system.mem_ctrls.wrQLenPdf::3                       1                       # What write queue length does an incoming req see
system.mem_ctrls.wrQLenPdf::4                       1                       # What write queue length does an incoming req see
system.mem_ctrls.wrQLenPdf::5                       1                       # What write queue length does an incoming req see
system.mem_ctrls.wrQLenPdf::6                       1                       # What write queue length does an incoming req see
system.mem_ctrls.wrQLenPdf::7                       1                       # What write queue length does an incoming req see
system.mem_ctrls.wrQLenPdf::8                       1                       # What write queue length does an incoming req see
system.mem_ctrls.wrQLenPdf::9                       1                       # What write queue length does an incoming req see
system.mem_ctrls.wrQLenPdf::10                      1                       # What write queue length does an incoming req see
system.mem_ctrls.wrQLenPdf::11                      1                       # What write queue length does an incoming req see
system.mem_ctrls.wrQLenPdf::12                      1                       # What write queue length does an incoming req see
system.mem_ctrls.wrQLenPdf::13                      1                       # What write queue length does an incoming req see
system.mem_ctrls.wrQLenPdf::14                      1                       # What write queue length does an incoming req see
system.mem_ctrls.wrQLenPdf::15                    782                       # What write queue length does an incoming req see
system.mem_ctrls.wrQLenPdf::16                    789                       # What write queue length does an incoming req see
system.mem_ctrls.wrQLenPdf::17                    902                       # What write queue length does an incoming req see
system.mem_ctrls.wrQLenPdf::18                    917                       # What write queue length does an incoming req see
system.mem_ctrls.wrQLenPdf::19                    910                       # What write queue length does an incoming req see
system.mem_ctrls.wrQLenPdf::20                    897                       # What write queue length does an incoming req see
system.mem_ctrls.wrQLenPdf::21                    900                       # What write queue length does an incoming req see
system.mem_ctrls.wrQLenPdf::22                    895                       # What write queue length does an incoming req see
system.mem_ctrls.wrQLenPdf::23                    894                       # What write queue length does an incoming req see
system.mem_ctrls.wrQLenPdf::24                    896                       # What write queue length does an incoming req see
system.mem_ctrls.wrQLenPdf::25                    896                       # What write queue length does an incoming req see
system.mem_ctrls.wrQLenPdf::26                    895                       # What write queue length does an incoming req see
system.mem_ctrls.wrQLenPdf::27                    894                       # What write queue length does an incoming req see
system.mem_ctrls.wrQLenPdf::28                    894                       # What write queue length does an incoming req see
system.mem_ctrls.wrQLenPdf::29                    894                       # What write queue length does an incoming req see
system.mem_ctrls.wrQLenPdf::30                    894                       # What write queue length does an incoming req see
system.mem_ctrls.wrQLenPdf::31                    894                       # What write queue length does an incoming req see
system.mem_ctrls.wrQLenPdf::32                    894                       # What write queue length does an incoming req see
system.mem_ctrls.wrQLenPdf::33                      0                       # What write queue length does an incoming req see
system.mem_ctrls.wrQLenPdf::34                      0                       # What write queue length does an incoming req see
system.mem_ctrls.wrQLenPdf::35                      0                       # What write queue length does an incoming req see
system.mem_ctrls.wrQLenPdf::36                      0                       # What write queue length does an incoming req see
system.mem_ctrls.wrQLenPdf::37                      0                       # What write queue length does an incoming req see
system.mem_ctrls.wrQLenPdf::38                      0                       # What write queue length does an incoming req see
system.mem_ctrls.wrQLenPdf::39                      0                       # What write queue length does an incoming req see
system.mem_ctrls.wrQLenPdf::40                      0                       # What write queue length does an incoming req see
system.mem_ctrls.wrQLenPdf::41                      0                       # What write queue length does an incoming req see
system.mem_ctrls.wrQLenPdf::42                      0                       # What write queue length does an incoming req see
system.mem_ctrls.wrQLenPdf::43                      0                       # What write queue length does an incoming req see
system.mem_ctrls.wrQLenPdf::44                      0                       # What write queue length does an incoming req see
system.mem_ctrls.wrQLenPdf::45                      0                       # What write queue length does an incoming req see
system.mem_ctrls.wrQLenPdf::46                      0                       # What write queue length does an incoming req see
system.mem_ctrls.wrQLenPdf::47                      0                       # What write queue length does an incoming req see
system.mem_ctrls.wrQLenPdf::48                      0                       # What write queue length does an incoming req see
system.mem_ctrls.wrQLenPdf::49                      0                       # What write queue length does an incoming req see
system.mem_ctrls.wrQLenPdf::50                      0                       # What write queue length does an incoming req see
system.mem_ctrls.wrQLenPdf::51                      0                       # What write queue length does an incoming req see
system.mem_ctrls.wrQLenPdf::52                      0                       # What write queue length does an incoming req see
system.mem_ctrls.wrQLenPdf::53                      0                       # What write queue length does an incoming req see
system.mem_ctrls.wrQLenPdf::54                      0                       # What write queue length does an incoming req see
system.mem_ctrls.wrQLenPdf::55                      0                       # What write queue length does an incoming req see
system.mem_ctrls.wrQLenPdf::56                      0                       # What write queue length does an incoming req see
system.mem_ctrls.wrQLenPdf::57                      0                       # What write queue length does an incoming req see
system.mem_ctrls.wrQLenPdf::58                      0                       # What write queue length does an incoming req see
system.mem_ctrls.wrQLenPdf::59                      0                       # What write queue length does an incoming req see
system.mem_ctrls.wrQLenPdf::60                      0                       # What write queue length does an incoming req see
system.mem_ctrls.wrQLenPdf::61                      0                       # What write queue length does an incoming req see
system.mem_ctrls.wrQLenPdf::62                      0                       # What write queue length does an incoming req see
system.mem_ctrls.wrQLenPdf::63                      0                       # What write queue length does an incoming req see
system.mem_ctrls.rdPerTurnAround::samples          894                       # Reads before turning the bus around for writes
system.mem_ctrls.rdPerTurnAround::mean     166.159955                       # Reads before turning the bus around for writes
system.mem_ctrls.rdPerTurnAround::gmean     28.544955                       # Reads before turning the bus around for writes
system.mem_ctrls.rdPerTurnAround::stdev   4067.215925                       # Reads before turning the bus around for writes
system.mem_ctrls.rdPerTurnAround::0-4095          893     99.89%     99.89% # Reads before turning the bus around for writes
system.mem_ctrls.rdPerTurnAround::118784-122879            1      0.11%    100.00% # Reads before turning the bus around for writes
system.mem_ctrls.rdPerTurnAround::total           894                       # Reads before turning the bus around for writes
system.mem_ctrls.wrPerTurnAround::samples          894                       # Writes before turning the bus around for reads
system.mem_ctrls.wrPerTurnAround::mean      17.825503                       # Writes before turning the bus around for reads
system.mem_ctrls.wrPerTurnAround::gmean     17.809244                       # Writes before turning the bus around for reads
system.mem_ctrls.wrPerTurnAround::stdev      0.744354                       # Writes before turning the bus around for reads
system.mem_ctrls.wrPerTurnAround::16              113     12.64%     12.64% # Writes before turning the bus around for reads
system.mem_ctrls.wrPerTurnAround::18              711     79.53%     92.17% # Writes before turning the bus around for reads
system.mem_ctrls.wrPerTurnAround::19               70      7.83%    100.00% # Writes before turning the bus around for reads
system.mem_ctrls.wrPerTurnAround::total           894                       # Writes before turning the bus around for reads
system.mem_ctrls.bytesReadWrQ                       0                       # Total number of bytes read from write queue
system.mem_ctrls.bytesReadSys                 4753568                       # Total read bytes from the system interface side
system.mem_ctrls.bytesWrittenSys               664768                       # Total written bytes from the system interface side
system.mem_ctrls.avgRdBWSys                     25.03                       # Average system read bandwidth in MiByte/s
system.mem_ctrls.avgWrBWSys                      3.50                       # Average system write bandwidth in MiByte/s
system.mem_ctrls.totGap                  189908872500                       # Total gap between requests
system.mem_ctrls.avgGap                    1121577.53                       # Average gap between requests
system.mem_ctrls.requestorReadBytes::.cpu.inst        33600                       # Per-requestor bytes read from memory
system.mem_ctrls.requestorReadBytes::.cpu.data      4719968                       # Per-requestor bytes read from memory
system.mem_ctrls.requestorWriteBytes::.writebacks       509952                       # Per-requestor bytes write to memory
system.mem_ctrls.requestorReadRate::.cpu.inst 176924.863730534853                       # Per-requestor bytes read from memory rate (Bytes/sec)
system.mem_ctrls.requestorReadRate::.cpu.data 24853562.357514437288                       # Per-requestor bytes read from memory rate (Bytes/sec)
system.mem_ctrls.requestorWriteRate::.writebacks 2685213.931818860117                       # Per-requestor bytes write to memory rate (Bytes/sec)
system.mem_ctrls.requestorReadAccesses::.cpu.inst         1050                       # Per-requestor read serviced memory accesses
system.mem_ctrls.requestorReadAccesses::.cpu.data       147499                       # Per-requestor read serviced memory accesses
system.mem_ctrls.requestorWriteAccesses::.writebacks        20774                       # Per-requestor write serviced memory accesses
system.mem_ctrls.requestorReadTotalLat::.cpu.inst     26334000                       # Per-requestor read total memory access latency
system.mem_ctrls.requestorReadTotalLat::.cpu.data   3641093000                       # Per-requestor read total memory access latency
system.mem_ctrls.requestorWriteTotalLat::.writebacks 1300618931000                       # Per-requestor write total memory access latency
[...]
system.mem_ctrls.dram.bw_total::.cpu.data     24853562                       # Total bandwidth to/from this memory (bytes/s)
system.mem_ctrls.dram.bw_total::total        28530904                       # Total bandwidth to/from this memory (bytes/s)
system.mem_ctrls.dram.readBursts               148549                       # Number of DRAM read bursts
system.mem_ctrls.dram.writeBursts               15936                       # Number of DRAM write bursts
system.mem_ctrls.dram.perBankRdBursts::0         9553                       # Per bank write bursts
system.mem_ctrls.dram.perBankRdBursts::1         9488                       # Per bank write bursts
system.mem_ctrls.dram.perBankRdBursts::2         9426                       # Per bank write bursts
system.mem_ctrls.dram.perBankRdBursts::3         9242                       # Per bank write bursts
system.mem_ctrls.dram.perBankRdBursts::4         9085                       # Per bank write bursts
system.mem_ctrls.dram.perBankRdBursts::5         9220                       # Per bank write bursts
system.mem_ctrls.dram.perBankRdBursts::6         8948                       # Per bank write bursts
system.mem_ctrls.dram.perBankRdBursts::7         9264                       # Per bank write bursts
system.mem_ctrls.dram.perBankRdBursts::8         9277                       # Per bank write bursts
system.mem_ctrls.dram.perBankRdBursts::9         9228                       # Per bank write bursts
system.mem_ctrls.dram.perBankRdBursts::10         9378                       # Per bank write bursts
system.mem_ctrls.dram.perBankRdBursts::11         9258                       # Per bank write bursts
system.mem_ctrls.dram.perBankRdBursts::12         9284                       # Per bank write bursts
system.mem_ctrls.dram.perBankRdBursts::13         9263                       # Per bank write bursts
system.mem_ctrls.dram.perBankRdBursts::14         9403                       # Per bank write bursts
system.mem_ctrls.dram.perBankRdBursts::15         9232                       # Per bank write bursts
system.mem_ctrls.dram.perBankWrBursts::0          958                       # Per bank write bursts
system.mem_ctrls.dram.perBankWrBursts::1         1002                       # Per bank write bursts
system.mem_ctrls.dram.perBankWrBursts::2          961                       # Per bank write bursts
system.mem_ctrls.dram.perBankWrBursts::3          991                       # Per bank write bursts
system.mem_ctrls.dram.perBankWrBursts::4          964                       # Per bank write bursts
system.mem_ctrls.dram.perBankWrBursts::5         1027                       # Per bank write bursts
system.mem_ctrls.dram.perBankWrBursts::6          891                       # Per bank write bursts
system.mem_ctrls.dram.perBankWrBursts::7         1017                       # Per bank write bursts
system.mem_ctrls.dram.perBankWrBursts::8         1103                       # Per bank write bursts
system.mem_ctrls.dram.perBankWrBursts::9         1009                       # Per bank write bursts
system.mem_ctrls.dram.perBankWrBursts::10         1126                       # Per bank write bursts
system.mem_ctrls.dram.perBankWrBursts::11         1010                       # Per bank write bursts
system.mem_ctrls.dram.perBankWrBursts::12          994                       # Per bank write bursts
system.mem_ctrls.dram.perBankWrBursts::13          982                       # Per bank write bursts
system.mem_ctrls.dram.perBankWrBursts::14          972                       # Per bank write bursts
system.mem_ctrls.dram.perBankWrBursts::15          929                       # Per bank write bursts
system.mem_ctrls.dram.totQLat               882133250                       # Total ticks spent queuing
system.mem_ctrls.dram.totBusLat             742745000                       # Total ticks spent in databus transfers
system.mem_ctrls.dram.totMemAccLat         3667427000                       # Total ticks spent from burst creation until serviced by the DRAM
system.mem_ctrls.dram.avgQLat                 5938.33                       # Average queueing delay per DRAM burst
system.mem_ctrls.dram.avgBusLat               5000.00                       # Average bus latency per DRAM burst
system.mem_ctrls.dram.avgMemAccLat           24688.33                       # Average memory access latency per DRAM burst
system.mem_ctrls.dram.readRowHits              118326                       # Number of row buffer hits during reads
system.mem_ctrls.dram.writeRowHits              13371                       # Number of row buffer hits during writes
system.mem_ctrls.dram.readRowHitRate            79.65                       # Row buffer hit rate for reads
system.mem_ctrls.dram.writeRowHitRate           83.90                       # Row buffer hit rate for writes
system.mem_ctrls.dram.bytesPerActivate::samples        32787                       # Bytes accessed per row activation
system.mem_ctrls.dram.bytesPerActivate::mean   321.069692                       # Bytes accessed per row activation
system.mem_ctrls.dram.bytesPerActivate::gmean   265.130664                       # Bytes accessed per row activation
system.mem_ctrls.dram.bytesPerActivate::stdev   223.122182                       # Bytes accessed per row activation
system.mem_ctrls.dram.bytesPerActivate::0-127         2585      7.88%      7.88% # Bytes accessed per row activation
system.mem_ctrls.dram.bytesPerActivate::128-255         3053      9.31%     17.20% # Bytes accessed per row activation
system.mem_ctrls.dram.bytesPerActivate::256-383        21337     65.08%     82.27% # Bytes accessed per row activation
system.mem_ctrls.dram.bytesPerActivate::384-511          494      1.51%     83.78% # Bytes accessed per row activation
system.mem_ctrls.dram.bytesPerActivate::512-639         1354      4.13%     87.91% # Bytes accessed per row activation
system.mem_ctrls.dram.bytesPerActivate::640-767          650      1.98%     89.89% # Bytes accessed per row activation
system.mem_ctrls.dram.bytesPerActivate::768-895         1554      4.74%     94.63% # Bytes accessed per row activation
system.mem_ctrls.dram.bytesPerActivate::896-1023          383      1.17%     95.80% # Bytes accessed per row activation
system.mem_ctrls.dram.bytesPerActivate::1024-1151         1377      4.20%    100.00% # Bytes accessed per row activation
system.mem_ctrls.dram.bytesPerActivate::total        32787                       # Bytes accessed per row activation
system.mem_ctrls.dram.bytesRead               9507136                       # Total number of bytes read from DRAM
system.mem_ctrls.dram.bytesWritten            1019904                       # Total number of bytes written to DRAM
system.mem_ctrls.dram.avgRdBW               50.060974                       # Average DRAM read bandwidth in MiBytes/s
system.mem_ctrls.dram.avgWrBW                5.370428                       # Average DRAM write bandwidth in MiBytes/s
system.mem_ctrls.dram.peakBW                 12800.00                       # Theoretical peak bandwidth in MiByte/s
system.mem_ctrls.dram.busUtil                    0.43                       # Data bus utilization in percentage
system.mem_ctrls.dram.busUtilRead                0.39                       # Data bus utilization in percentage for reads
system.mem_ctrls.dram.busUtilWrite               0.04                       # Data bus utilization in percentage for writes
system.mem_ctrls.dram.pageHitRate               80.07                       # Row buffer hit rate, read and write combined
system.mem_ctrls.dram.power_state.pwrStateResidencyTicks::UNDEFINED 189911125500                       # Cumulative time (in ticks) in various power states
system.mem_ctrls.dram.rank0.actEnergy       116282040                       # Energy for activate commands per rank (pJ)
system.mem_ctrls.dram.rank0.preEnergy        61801575                       # Energy for precharge commands per rank (pJ)
system.mem_ctrls.dram.rank0.readEnergy      529973640                       # Energy for read commands per rank (pJ)
system.mem_ctrls.dram.rank0.writeEnergy      40773420                       # Energy for write commands per rank (pJ)
system.mem_ctrls.dram.rank0.refreshEnergy 14991069600.000002                       # Energy for refresh commands per rank (pJ)
system.mem_ctrls.dram.rank0.actBackEnergy  37151554050                       # Energy for active background per rank (pJ)
system.mem_ctrls.dram.rank0.preBackEnergy  41640353280                       # Energy for precharge background per rank (pJ)
system.mem_ctrls.dram.rank0.actPowerDownEnergy            0                       # Energy for active power-down per rank (pJ)
system.mem_ctrls.dram.rank0.prePowerDownEnergy            0                       # Energy for precharge power-down per rank (pJ)
system.mem_ctrls.dram.rank0.selfRefreshEnergy            0                       # Energy for self refresh per rank (pJ)
system.mem_ctrls.dram.rank0.totalEnergy   94531807605                       # Total energy per rank (pJ)
system.mem_ctrls.dram.rank0.averagePower   497.768666                       # Core power per rank (mW)
system.mem_ctrls.dram.rank0.totalIdleTime            0                       # Total Idle time Per DRAM Rank
system.mem_ctrls.dram.rank0.pwrStateTime::IDLE 107910502000                       # Time in different power states
system.mem_ctrls.dram.rank0.pwrStateTime::REF   6341400000                       # Time in different power states
system.mem_ctrls.dram.rank0.pwrStateTime::SREF            0                       # Time in different power states
system.mem_ctrls.dram.rank0.pwrStateTime::PRE_PDN            0                       # Time in different power states
system.mem_ctrls.dram.rank0.pwrStateTime::ACT  75659223500                       # Time in different power states
system.mem_ctrls.dram.rank0.pwrStateTime::ACT_PDN            0                       # Time in different power states
system.mem_ctrls.dram.rank1.actEnergy       117824280                       # Energy for activate commands per rank (pJ)
system.mem_ctrls.dram.rank1.preEnergy        62625090                       # Energy for precharge commands per rank (pJ)
system.mem_ctrls.dram.rank1.readEnergy      530666220                       # Energy for read commands per rank (pJ)
system.mem_ctrls.dram.rank1.writeEnergy      42412500                       # Energy for write commands per rank (pJ)
system.mem_ctrls.dram.rank1.refreshEnergy 14991069600.000002                       # Energy for refresh commands per rank (pJ)
system.mem_ctrls.dram.rank1.actBackEnergy  37558217130                       # Energy for active background per rank (pJ)
system.mem_ctrls.dram.rank1.preBackEnergy  41297900160                       # Energy for precharge background per rank (pJ)
system.mem_ctrls.dram.rank1.actPowerDownEnergy            0                       # Energy for active power-down per rank (pJ)
system.mem_ctrls.dram.rank1.prePowerDownEnergy            0                       # Energy for precharge power-down per rank (pJ)
system.mem_ctrls.dram.rank1.selfRefreshEnergy            0                       # Energy for self refresh per rank (pJ)
system.mem_ctrls.dram.rank1.totalEnergy   94600714980                       # Total energy per rank (pJ)
system.mem_ctrls.dram.rank1.averagePower   498.131506                       # Core power per rank (mW)
system.mem_ctrls.dram.rank1.totalIdleTime            0                       # Total Idle time Per DRAM Rank
system.mem_ctrls.dram.rank1.pwrStateTime::IDLE 107017316750                       # Time in different power states
system.mem_ctrls.dram.rank1.pwrStateTime::REF   6341400000                       # Time in different power states
system.mem_ctrls.dram.rank1.pwrStateTime::SREF            0                       # Time in different power states
system.mem_ctrls.dram.rank1.pwrStateTime::PRE_PDN            0                       # Time in different power states
system.mem_ctrls.dram.rank1.pwrStateTime::ACT  76552408750                       # Time in different power states
system.mem_ctrls.dram.rank1.pwrStateTime::ACT_PDN            0                       # Time in different power states
system.mem_ctrls.power_state.pwrStateResidencyTicks::UNDEFINED 189911125500                       # Cumulative time (in ticks) in various power states
system.membus.trans_dist::ReadResp              10994                       # Transaction distribution
system.membus.trans_dist::WritebackDirty        20774                       # Transaction distribution
system.membus.trans_dist::CleanEvict              126                       # Transaction distribution
system.membus.trans_dist::ReadExReq            137555                       # Transaction distribution
system.membus.trans_dist::ReadExResp           137555                       # Transaction distribution
system.membus.trans_dist::ReadSharedReq         10994                       # Transaction distribution
system.membus.pkt_count_system.l2.mem_side_port::system.mem_ctrls.port       317998                       # Packet count per connected requestor and responder (bytes)
system.membus.pkt_count_system.l2.mem_side_port::total       317998                       # Packet count per connected requestor and responder (bytes)
system.membus.pkt_count::total                 317998                       # Packet count per connected requestor and responder (bytes)
system.membus.pkt_size_system.l2.mem_side_port::system.mem_ctrls.port      5418336                       # Cumulative packet size per connected requestor and responder (bytes)
system.membus.pkt_size_system.l2.mem_side_port::total      5418336                       # Cumulative packet size per connected requestor and responder (bytes)
system.membus.pkt_size::total                 5418336                       # Cumulative packet size per connected requestor and responder (bytes)
system.membus.snoops                                0                       # Total snoops (count)
system.membus.snoopTraffic                          0                       # Total snoop traffic (bytes)
system.membus.snoop_fanout::samples            148549                       # Request fanout histogram
system.membus.snoop_fanout::mean                    0                       # Request fanout histogram
system.membus.snoop_fanout::stdev                   0                       # Request fanout histogram
system.membus.snoop_fanout::underflows              0      0.00%      0.00% # Request fanout histogram
system.membus.snoop_fanout::0                  148549    100.00%    100.00% # Request fanout histogram
system.membus.snoop_fanout::1                       0      0.00%    100.00% # Request fanout histogram
system.membus.snoop_fanout::overflows               0      0.00%    100.00% # Request fanout histogram
system.membus.snoop_fanout::min_value               0                       # Request fanout histogram
system.membus.snoop_fanout::max_value               0                       # Request fanout histogram
system.membus.snoop_fanout::total              148549                       # Request fanout histogram
system.membus.power_state.pwrStateResidencyTicks::UNDEFINED 189911125500                       # Cumulative time (in ticks) in various power states
system.membus.reqLayer2.occupancy           216964000                       # Layer occupancy (ticks)
system.membus.reqLayer2.utilization               0.1                       # Layer utilization (%)
system.membus.respLayer1.occupancy          490128000                       # Layer occupancy (ticks)
system.membus.respLayer1.utilization              0.3                       # Layer utilization (%)
system.tol2bus.trans_dist::ReadResp             11078                       # Transaction distribution
system.tol2bus.trans_dist::WritebackDirty        43609                       # Transaction distribution
system.tol2bus.trans_dist::WritebackClean           21                       # Transaction distribution
system.tol2bus.trans_dist::CleanEvict          146638                       # Transaction distribution
system.tol2bus.trans_dist::ReadExReq           137555                       # Transaction distribution
system.tol2bus.trans_dist::ReadExResp          137555                       # Transaction distribution
system.tol2bus.trans_dist::ReadCleanReq          1050                       # Transaction distribution
system.tol2bus.trans_dist::ReadSharedReq        10028                       # Transaction distribution
system.tol2bus.pkt_count_system.cpu.icache.mem_side_port::system.l2.cpu_side_port         2121                       # Packet count per connected requestor and responder (bytes)
system.tol2bus.pkt_count_system.cpu.dcache.mem_side_port::system.l2.cpu_side_port       318106                       # Packet count per connected requestor and responder (bytes)
system.tol2bus.pkt_count::total                320227                       # Packet count per connected requestor and responder (bytes)
system.tol2bus.pkt_size_system.cpu.icache.mem_side_port::system.l2.cpu_side_port        34272                       # Cumulative packet size per connected requestor and responder (bytes)
system.tol2bus.pkt_size_system.cpu.dcache.mem_side_port::system.l2.cpu_side_port      5453376                       # Cumulative packet size per connected requestor and responder (bytes)
system.tol2bus.pkt_size::total                5487648                       # Cumulative packet size per connected requestor and responder (bytes)
system.tol2bus.snoops                          167307                       # Total snoops (count)
system.tol2bus.snoopTraffic                    664768                       # Total snoop traffic (bytes)
system.tol2bus.snoop_fanout::samples           315940                       # Request fanout histogram
system.tol2bus.snoop_fanout::mean            0.463734                       # Request fanout histogram
system.tol2bus.snoop_fanout::stdev           0.498684                       # Request fanout histogram
system.tol2bus.snoop_fanout::underflows             0      0.00%      0.00% # Request fanout histogram
system.tol2bus.snoop_fanout::0                 169428     53.63%     53.63% # Request fanout histogram
system.tol2bus.snoop_fanout::1                 146512     46.37%    100.00% # Request fanout histogram
system.tol2bus.snoop_fanout::2                      0      0.00%    100.00% # Request fanout histogram
system.tol2bus.snoop_fanout::3                      0      0.00%    100.00% # Request fanout histogram
system.tol2bus.snoop_fanout::4                      0      0.00%    100.00% # Request fanout histogram
system.tol2bus.snoop_fanout::overflows              0      0.00%    100.00% # Request fanout histogram
system.tol2bus.snoop_fanout::min_value              0                       # Request fanout histogram
system.tol2bus.snoop_fanout::max_value              1                       # Request fanout histogram
system.tol2bus.snoop_fanout::total             315940                       # Request fanout histogram
system.tol2bus.power_state.pwrStateResidencyTicks::UNDEFINED 189911125500                       # Cumulative time (in ticks) in various power states
system.tol2bus.reqLayer0.occupancy           97225000                       # Layer occupancy (ticks)
system.tol2bus.reqLayer0.utilization              0.1                       # Layer utilization (%)
system.tol2bus.respLayer0.occupancy           1050000                       # Layer occupancy (ticks)
system.tol2bus.respLayer0.utilization             0.0                       # Layer utilization (%)
system.tol2bus.respLayer1.occupancy         147583000                       # Layer occupancy (ticks)
system.tol2bus.respLayer1.utilization             0.1                       # Layer utilization (%)
system.voltage_domain.voltage                       1                       # Voltage in Volts

---------- End Simulation Statistics   ----------
