
---------- Begin Simulation Statistics ----------
final_tick                               192807391000                       # Number of ticks from beginning of simulation (restored from checkpoints and never reset)
host_inst_rate                                 853194                       # Simulator instruction rate (inst/s)
host_mem_usage                                 671564                       # Number of bytes of host memory used
host_op_rate                                  1103636                       # Simulator op (including micro ops) rate (op/s)
host_seconds                                   117.21                       # Real time elapsed on the host
host_tick_rate                             1645019844                       # Simulator tick rate (ticks/s)
sim_freq                                 1000000000000                       # Frequency of simulated ticks
sim_insts                                   100000000                       # Number of instructions simulated
sim_ops                                     129353490                       # Number of ops (including micro ops) simulated
sim_seconds                                  0.192807                       # Number of seconds simulated
sim_ticks                                192807391000                       # Number of ticks simulated
system.cpu.Branches                           5555718                       # Number of branches fetched
system.cpu.committedInsts                   100000000                       # Number of instructions committed
system.cpu.committedOps                     129353490                       # Number of ops (including micro ops) committed
system.cpu.idle_fraction                            0                       # Percentage of idle cycles
system.cpu.not_idle_fraction                        1                       # Percentage of non-idle cycles
system.cpu.numCycles                        385614782                       # number of cpu cycles simulated
system.cpu.numWorkItemsCompleted                    0                       # number of work items this cpu completed
system.cpu.numWorkItemsStarted                      0                       # number of work items this cpu started
system.cpu.num_busy_cycles                  385614782                       # Number of busy cycles
system.cpu.num_cc_register_reads             37536336                       # number of times the CC registers were read
system.cpu.num_cc_register_writes            52077182                       # number of times the CC registers were written
system.cpu.num_conditional_control_insts      5078798                       # number of instructions that are conditional controls
system.cpu.num_fp_alu_accesses                5734498                       # Number of float alu accesses
system.cpu.num_fp_insts                       5734498                       # number of float instructions
system.cpu.num_fp_register_reads              4648737                       # number of times the floating registers were read
system.cpu.num_fp_register_writes             4867956                       # number of times the floating registers were written
system.cpu.num_func_calls                      317051                       # number of times a function call or return occured
system.cpu.num_idle_cycles                          0                       # Number of idle cycles
system.cpu.num_int_alu_accesses             125241022                       # Number of integer alu accesses
system.cpu.num_int_insts                    125241022                       # number of integer instructions
system.cpu.num_int_register_reads           293410038                       # number of times the integer registers were read
system.cpu.num_int_register_writes          113873586                       # number of times the integer registers were written
system.cpu.num_load_insts                    43555354                       # Number of load instructions
system.cpu.num_mem_refs                      50714744                       # number of memory refs
system.cpu.num_store_insts                    7159390                       # Number of store instructions
system.cpu.num_vec_alu_accesses                     0                       # Number of vector alu accesses
system.cpu.num_vec_insts                            0                       # number of vector instructions
system.cpu.num_vec_register_reads                   0                       # number of times the vector registers were read
system.cpu.num_vec_register_writes                  0                       # number of times the vector registers were written
system.cpu.op_class::No_OpClass                550507      0.43%      0.43% # Class of executed instruction
system.cpu.op_class::IntAlu                  73097378     56.50%     56.92% # Class of executed instruction
system.cpu.op_class::IntMult                   132844      0.10%     57.02% # Class of executed instruction
system.cpu.op_class::IntDiv                   1253858      0.97%     57.99% # Class of executed instruction
system.cpu.op_class::FloatAdd                 1903691      1.47%     59.46% # Class of executed instruction
system.cpu.op_class::FloatCmp                       0      0.00%     59.46% # Class of executed instruction
system.cpu.op_class::FloatCvt                       0      0.00%     59.46% # Class of executed instruction
system.cpu.op_class::FloatMult                      0      0.00%     59.46% # Class of executed instruction
system.cpu.op_class::FloatMultAcc                   0      0.00%     59.46% # Class of executed instruction
system.cpu.op_class::FloatDiv                       0      0.00%     59.46% # Class of executed instruction
system.cpu.op_class::FloatMisc                      0      0.00%     59.46% # Class of executed instruction
system.cpu.op_class::FloatSqrt                      0      0.00%     59.46% # Class of executed instruction
system.cpu.op_class::SimdAdd                      494      0.00%     59.47% # Class of executed instruction
system.cpu.op_class::SimdAddAcc                     0      0.00%     59.47% # Class of executed instruction
system.cpu.op_class::SimdAlu                   218994      0.17%     59.63% # Class of executed instruction
system.cpu.op_class::SimdCmp                      180      0.00%     59.63% # Class of executed instruction
system.cpu.op_class::SimdCvt                   180632      0.14%     59.77% # Class of executed instruction
system.cpu.op_class::SimdMisc                  402789      0.31%     60.09% # Class of executed instruction
system.cpu.op_class::SimdMult                       0      0.00%     60.09% # Class of executed instruction
system.cpu.op_class::SimdMultAcc                    0      0.00%     60.09% # Class of executed instruction
system.cpu.op_class::SimdShift                     34      0.00%     60.09% # Class of executed instruction
system.cpu.op_class::SimdShiftAcc                   0      0.00%     60.09% # Class of executed instruction
system.cpu.op_class::SimdDiv                        0      0.00%     60.09% # Class of executed instruction
system.cpu.op_class::SimdSqrt                       0      0.00%     60.09% # Class of executed instruction
system.cpu.op_class::SimdFloatAdd              322927      0.25%     60.34% # Class of executed instruction
system.cpu.op_class::SimdFloatAlu                   0      0.00%     60.34% # Class of executed instruction
system.cpu.op_class::SimdFloatCmp                   0      0.00%     60.34% # Class of executed instruction
system.cpu.op_class::SimdFloatCvt              493438      0.38%     60.72% # Class of executed instruction
system.cpu.op_class::SimdFloatDiv               62796      0.05%     60.77% # Class of executed instruction
system.cpu.op_class::SimdFloatMisc                  0      0.00%     60.77% # Class of executed instruction
system.cpu.op_class::SimdFloatMult              49007      0.04%     60.80% # Class of executed instruction
system.cpu.op_class::SimdFloatMultAcc               0      0.00%     60.80% # Class of executed instruction
system.cpu.op_class::SimdFloatSqrt                  0      0.00%     60.80% # Class of executed instruction
system.cpu.op_class::SimdReduceAdd                  0      0.00%     60.80% # Class of executed instruction
system.cpu.op_class::SimdReduceAlu                  0      0.00%     60.80% # Class of executed instruction
system.cpu.op_class::SimdReduceCmp                  0      0.00%     60.80% # Class of executed instruction
system.cpu.op_class::SimdFloatReduceAdd             0      0.00%     60.80% # Class of executed instruction
system.cpu.op_class::SimdFloatReduceCmp             0      0.00%     60.80% # Class of executed instruction
system.cpu.op_class::SimdAes                        0      0.00%     60.80% # Class of executed instruction
system.cpu.op_class::SimdAesMix                     0      0.00%     60.80% # Class of executed instruction
system.cpu.op_class::SimdSha1Hash                   0      0.00%     60.80% # Class of executed instruction
system.cpu.op_class::SimdSha1Hash2                  0      0.00%     60.80% # Class of executed instruction
system.cpu.op_class::SimdSha256Hash                 0      0.00%     60.80% # Class of executed instruction
system.cpu.op_class::SimdSha256Hash2                0      0.00%     60.80% # Class of executed instruction
system.cpu.op_class::SimdShaSigma2                  0      0.00%     60.80% # Class of executed instruction
system.cpu.op_class::SimdShaSigma3                  0      0.00%     60.80% # Class of executed instruction
system.cpu.op_class::SimdPredAlu                    0      0.00%     60.80% # Class of executed instruction
system.cpu.op_class::MemRead                 42068750     32.51%     93.32% # Class of executed instruction
system.cpu.op_class::MemWrite                 6726912      5.20%     98.52% # Class of executed instruction
system.cpu.op_class::FloatMemRead             1486604      1.15%     99.67% # Class of executed instruction
system.cpu.op_class::FloatMemWrite             432478      0.33%    100.00% # Class of executed instruction
system.cpu.op_class::IprAccess                      0      0.00%    100.00% # Class of executed instruction
system.cpu.op_class::InstPrefetch                   0      0.00%    100.00% # Class of executed instruction
system.cpu.op_class::total                  129384313                       # Class of executed instruction
system.cpu.workload.numSyscalls                    35                       # Number of system calls
system.membus.snoop_filter.hit_multi_requests            0                       # Number of requests hitting in the snoop filter with multiple (>1) holders of the requested data.
system.membus.snoop_filter.hit_multi_snoops            0                       # Number of snoops hitting in the snoop filter with multiple (>1) holders of the requested data.
system.membus.snoop_filter.hit_single_requests        11742                       # Number of requests hitting in the snoop filter with a single holder of the requested data.
system.membus.snoop_filter.hit_single_snoops            0                       # Number of snoops hitting in the snoop filter with a single holder of the requested data.
system.membus.snoop_filter.tot_requests         31479                       # Total number of requests made to the snoop filter.
system.membus.snoop_filter.tot_snoops               0                       # Total number of snoops made to the snoop filter.
system.tol2bus.snoop_filter.hit_multi_requests            0                       # Number of requests hitting in the snoop filter with multiple (>1) holders of the requested data.
system.tol2bus.snoop_filter.hit_multi_snoops            0                       # Number of snoops hitting in the snoop filter with multiple (>1) holders of the requested data.
system.tol2bus.snoop_filter.hit_single_requests        60809                       # Number of requests hitting in the snoop filter with a single holder of the requested data.
system.tol2bus.snoop_filter.hit_single_snoops        19934                       # Number of snoops hitting in the snoop filter with a single holder of the requested data.
system.tol2bus.snoop_filter.tot_requests       127897                       # Total number of requests made to the snoop filter.
system.tol2bus.snoop_filter.tot_snoops          19934                       # Total number of snoops made to the snoop filter.
system.clk_domain.clock                          1000                       # Clock period in ticks
system.cpu.dcache.demand_hits::.cpu.data     50911212                       # number of demand (read+write) hits
system.cpu.dcache.demand_hits::total         50911212                       # number of demand (read+write) hits
system.cpu.dcache.overall_hits::.cpu.data     50923388                       # number of overall hits
system.cpu.dcache.overall_hits::total        50923388                       # number of overall hits
system.cpu.dcache.demand_misses::.cpu.data        61447                       # number of demand (read+write) misses
system.cpu.dcache.demand_misses::total          61447                       # number of demand (read+write) misses
system.cpu.dcache.overall_misses::.cpu.data        64625                       # number of overall misses
system.cpu.dcache.overall_misses::total         64625                       # number of overall misses
system.cpu.dcache.demand_miss_latency::.cpu.data   1924038000                       # number of demand (read+write) miss cycles
system.cpu.dcache.demand_miss_latency::total   1924038000                       # number of demand (read+write) miss cycles
system.cpu.dcache.overall_miss_latency::.cpu.data   1924038000                       # number of overall miss cycles
system.cpu.dcache.overall_miss_latency::total   1924038000                       # number of overall miss cycles
system.cpu.dcache.demand_accesses::.cpu.data     50972659                       # number of demand (read+write) accesses
system.cpu.dcache.demand_accesses::total     50972659                       # number of demand (read+write) accesses
system.cpu.dcache.overall_accesses::.cpu.data     50988013                       # number of overall (read+write) accesses
system.cpu.dcache.overall_accesses::total     50988013                       # number of overall (read+write) accesses
system.cpu.dcache.demand_miss_rate::.cpu.data     0.001205                       # miss rate for demand accesses
system.cpu.dcache.demand_miss_rate::total     0.001205                       # miss rate for demand accesses
system.cpu.dcache.overall_miss_rate::.cpu.data     0.001267                       # miss rate for overall accesses
system.cpu.dcache.overall_miss_rate::total     0.001267                       # miss rate for overall accesses
system.cpu.dcache.demand_avg_miss_latency::.cpu.data 31312.155191                       # average overall miss latency
system.cpu.dcache.demand_avg_miss_latency::total 31312.155191                       # average overall miss latency
system.cpu.dcache.overall_avg_miss_latency::.cpu.data 29772.348162                       # average overall miss latency
system.cpu.dcache.overall_avg_miss_latency::total 29772.348162                       # average overall miss latency
system.cpu.dcache.blocked_cycles::no_mshrs           24                       # number of cycles access was blocked
system.cpu.dcache.blocked_cycles::no_targets            0                       # number of cycles access was blocked
system.cpu.dcache.blocked::no_mshrs                 1                       # number of cycles access was blocked
system.cpu.dcache.blocked::no_targets               0                       # number of cycles access was blocked
system.cpu.dcache.avg_blocked_cycles::no_mshrs           24                       # average number of cycles each access was blocked
system.cpu.dcache.avg_blocked_cycles::no_targets          nan                       # average number of cycles each access was blocked
system.cpu.dcache.writebacks::.writebacks        57532                       # number of writebacks
system.cpu.dcache.writebacks::total             57532                       # number of writebacks
system.cpu.dcache.demand_mshr_hits::.cpu.data            1                       # number of demand (read+write) MSHR hits
system.cpu.dcache.demand_mshr_hits::total            1                       # number of demand (read+write) MSHR hits
system.cpu.dcache.overall_mshr_hits::.cpu.data            1                       # number of overall MSHR hits
system.cpu.dcache.overall_mshr_hits::total            1                       # number of overall MSHR hits
system.cpu.dcache.demand_mshr_misses::.cpu.data        61446                       # number of demand (read+write) MSHR misses
system.cpu.dcache.demand_mshr_misses::total        61446                       # number of demand (read+write) MSHR misses
system.cpu.dcache.overall_mshr_misses::.cpu.data        64574                       # number of overall MSHR misses
system.cpu.dcache.overall_mshr_misses::total        64574                       # number of overall MSHR misses
system.cpu.dcache.demand_mshr_miss_latency::.cpu.data   1862432500                       # number of demand (read+write) MSHR miss cycles
system.cpu.dcache.demand_mshr_miss_latency::total   1862432500                       # number of demand (read+write) MSHR miss cycles
system.cpu.dcache.overall_mshr_miss_latency::.cpu.data   1951098500                       # number of overall MSHR miss cycles
system.cpu.dcache.overall_mshr_miss_latency::total   1951098500                       # number of overall MSHR miss cycles
system.cpu.dcache.demand_mshr_miss_rate::.cpu.data     0.001205                       # mshr miss rate for demand accesses
system.cpu.dcache.demand_mshr_miss_rate::total     0.001205                       # mshr miss rate for demand accesses
system.cpu.dcache.overall_mshr_miss_rate::.cpu.data     0.001266                       # mshr miss rate for overall accesses
system.cpu.dcache.overall_mshr_miss_rate::total     0.001266                       # mshr miss rate for overall accesses
system.cpu.dcache.demand_avg_mshr_miss_latency::.cpu.data 30310.069004                       # average overall mshr miss latency
system.cpu.dcache.demand_avg_mshr_miss_latency::total 30310.069004                       # average overall mshr miss latency
system.cpu.dcache.overall_avg_mshr_miss_latency::.cpu.data 30214.923963                       # average overall mshr miss latency
system.cpu.dcache.overall_avg_mshr_miss_latency::total 30214.923963                       # average overall mshr miss latency
system.cpu.dcache.replacements                  60478                       # number of replacements
system.cpu.dcache.ReadReq_hits::.cpu.data     43831186                       # number of ReadReq hits
system.cpu.dcache.ReadReq_hits::total        43831186                       # number of ReadReq hits
system.cpu.dcache.ReadReq_misses::.cpu.data        12795                       # number of ReadReq misses
system.cpu.dcache.ReadReq_misses::total         12795                       # number of ReadReq misses
system.cpu.dcache.ReadReq_miss_latency::.cpu.data    302985000                       # number of ReadReq miss cycles
system.cpu.dcache.ReadReq_miss_latency::total    302985000                       # number of ReadReq miss cycles
system.cpu.dcache.ReadReq_accesses::.cpu.data     43843981                       # number of ReadReq accesses(hits+misses)
system.cpu.dcache.ReadReq_accesses::total     43843981                       # number of ReadReq accesses(hits+misses)
system.cpu.dcache.ReadReq_miss_rate::.cpu.data     0.000292                       # miss rate for ReadReq accesses
system.cpu.dcache.ReadReq_miss_rate::total     0.000292                       # miss rate for ReadReq accesses
system.cpu.dcache.ReadReq_avg_miss_latency::.cpu.data 23679.953107                       # average ReadReq miss latency
system.cpu.dcache.ReadReq_avg_miss_latency::total 23679.953107                       # average ReadReq miss latency
system.cpu.dcache.ReadReq_mshr_hits::.cpu.data            1                       # number of ReadReq MSHR hits
system.cpu.dcache.ReadReq_mshr_hits::total            1                       # number of ReadReq MSHR hits
system.cpu.dcache.ReadReq_mshr_misses::.cpu.data        12794                       # number of ReadReq MSHR misses
system.cpu.dcache.ReadReq_mshr_misses::total        12794                       # number of ReadReq MSHR misses
system.cpu.dcache.ReadReq_mshr_miss_latency::.cpu.data    290031500                       # number of ReadReq MSHR miss cycles
system.cpu.dcache.ReadReq_mshr_miss_latency::total    290031500                       # number of ReadReq MSHR miss cycles
system.cpu.dcache.ReadReq_mshr_miss_rate::.cpu.data     0.000292                       # mshr miss rate for ReadReq accesses
system.cpu.dcache.ReadReq_mshr_miss_rate::total     0.000292                       # mshr miss rate for ReadReq accesses
system.cpu.dcache.ReadReq_avg_mshr_miss_latency::.cpu.data 22669.337189                       # average ReadReq mshr miss latency
system.cpu.dcache.ReadReq_avg_mshr_miss_latency::total 22669.337189                       # average ReadReq mshr miss latency
system.cpu.dcache.WriteReq_hits::.cpu.data      7080026                       # number of WriteReq hits
system.cpu.dcache.WriteReq_hits::total        7080026                       # number of WriteReq hits
system.cpu.dcache.WriteReq_misses::.cpu.data        48652                       # number of WriteReq misses
system.cpu.dcache.WriteReq_misses::total        48652                       # number of WriteReq misses
system.cpu.dcache.WriteReq_miss_latency::.cpu.data   1621053000                       # number of WriteReq miss cycles
system.cpu.dcache.WriteReq_miss_latency::total   1621053000                       # number of WriteReq miss cycles
system.cpu.dcache.WriteReq_accesses::.cpu.data      7128678                       # number of WriteReq accesses(hits+misses)
system.cpu.dcache.WriteReq_accesses::total      7128678                       # number of WriteReq accesses(hits+misses)
system.cpu.dcache.WriteReq_miss_rate::.cpu.data     0.006825                       # miss rate for WriteReq accesses
system.cpu.dcache.WriteReq_miss_rate::total     0.006825                       # miss rate for WriteReq accesses
system.cpu.dcache.WriteReq_avg_miss_latency::.cpu.data 33319.349667                       # average WriteReq miss latency
system.cpu.dcache.WriteReq_avg_miss_latency::total 33319.349667                       # average WriteReq miss latency
system.cpu.dcache.WriteReq_mshr_misses::.cpu.data        48652                       # number of WriteReq MSHR misses
system.cpu.dcache.WriteReq_mshr_misses::total        48652                       # number of WriteReq MSHR misses
system.cpu.dcache.WriteReq_mshr_miss_latency::.cpu.data   1572401000                       # number of WriteReq MSHR miss cycles
system.cpu.dcache.WriteReq_mshr_miss_latency::total   1572401000                       # number of WriteReq MSHR miss cycles
system.cpu.dcache.WriteReq_mshr_miss_rate::.cpu.data     0.006825                       # mshr miss rate for WriteReq accesses
system.cpu.dcache.WriteReq_mshr_miss_rate::total     0.006825                       # mshr miss rate for WriteReq accesses
system.cpu.dcache.WriteReq_avg_mshr_miss_latency::.cpu.data 32319.349667                       # average WriteReq mshr miss latency
system.cpu.dcache.WriteReq_avg_mshr_miss_latency::total 32319.349667                       # average WriteReq mshr miss latency
system.cpu.dcache.SoftPFReq_hits::.cpu.data        12176                       # number of SoftPFReq hits
system.cpu.dcache.SoftPFReq_hits::total         12176                       # number of SoftPFReq hits
system.cpu.dcache.SoftPFReq_misses::.cpu.data         3178                       # number of SoftPFReq misses
system.cpu.dcache.SoftPFReq_misses::total         3178                       # number of SoftPFReq misses
system.cpu.dcache.SoftPFReq_accesses::.cpu.data        15354                       # number of SoftPFReq accesses(hits+misses)
system.cpu.dcache.SoftPFReq_accesses::total        15354                       # number of SoftPFReq accesses(hits+misses)
system.cpu.dcache.SoftPFReq_miss_rate::.cpu.data     0.206982                       # miss rate for SoftPFReq accesses
system.cpu.dcache.SoftPFReq_miss_rate::total     0.206982                       # miss rate for SoftPFReq accesses
system.cpu.dcache.SoftPFReq_mshr_misses::.cpu.data         3128                       # number of SoftPFReq MSHR misses
system.cpu.dcache.SoftPFReq_mshr_misses::total         3128                       # number of SoftPFReq MSHR misses
system.cpu.dcache.SoftPFReq_mshr_miss_latency::.cpu.data     88666000                       # number of SoftPFReq MSHR miss cycles
system.cpu.dcache.SoftPFReq_mshr_miss_latency::total     88666000                       # number of SoftPFReq MSHR miss cycles
system.cpu.dcache.SoftPFReq_mshr_miss_rate::.cpu.data     0.203725                       # mshr miss rate for SoftPFReq accesses
system.cpu.dcache.SoftPFReq_mshr_miss_rate::total     0.203725                       # mshr miss rate for SoftPFReq accesses
system.cpu.dcache.SoftPFReq_avg_mshr_miss_latency::.cpu.data 28345.907928                       # average SoftPFReq mshr miss latency
system.cpu.dcache.SoftPFReq_avg_mshr_miss_latency::total 28345.907928                       # average SoftPFReq mshr miss latency
system.cpu.dcache.power_state.pwrStateResidencyTicks::UNDEFINED 192807391000                       # Cumulative time (in ticks) in various power states
system.cpu.dcache.tags.tagsinuse          4042.932677                       # Cycle average of tags in use
system.cpu.dcache.tags.total_refs            50987962                       # Total number of references to valid blocks.
system.cpu.dcache.tags.sampled_refs             64574                       # Sample count of references to valid blocks.
system.cpu.dcache.tags.avg_refs            789.605135                       # Average number of references to valid blocks.
system.cpu.dcache.tags.warmup_cycle            177500                       # Cycle when the warmup percentage was hit.
system.cpu.dcache.tags.occ_blocks::.cpu.data  4042.932677                       # Average occupied blocks per requestor
system.cpu.dcache.tags.occ_percent::.cpu.data     0.987044                       # Average percentage of cache occupancy
system.cpu.dcache.tags.occ_percent::total     0.987044                       # Average percentage of cache occupancy
system.cpu.dcache.tags.occ_task_id_blocks::1024         4096                       # Occupied blocks per task id
system.cpu.dcache.tags.age_task_id_blocks_1024::1            1                       # Occupied blocks per task id
system.cpu.dcache.tags.age_task_id_blocks_1024::2           38                       # Occupied blocks per task id
system.cpu.dcache.tags.age_task_id_blocks_1024::3          676                       # Occupied blocks per task id
system.cpu.dcache.tags.age_task_id_blocks_1024::4         3381                       # Occupied blocks per task id
system.cpu.dcache.tags.occ_task_id_percent::1024            1                       # Percentage of cache occupancy per task id
system.cpu.dcache.tags.tag_accesses         102040600                       # Number of tag accesses
system.cpu.dcache.tags.data_accesses        102040600                       # Number of data accesses
system.cpu.dcache.tags.power_state.pwrStateResidencyTicks::UNDEFINED 192807391000                       # Cumulative time (in ticks) in various power states
system.cpu.dtb.rdAccesses                    43859336                       # TLB accesses on read requests
system.cpu.dtb.wrAccesses                     7159465                       # TLB accesses on write requests
system.cpu.dtb.rdMisses                           114                       # TLB misses on read requests
system.cpu.dtb.wrMisses                           271                       # TLB misses on write requests
system.cpu.dtb.walker.power_state.pwrStateResidencyTicks::UNDEFINED 192807391000                       # Cumulative time (in ticks) in various power states
system.cpu.dtb_walker_cache.blocked_cycles::no_mshrs            0                       # number of cycles access was blocked
system.cpu.dtb_walker_cache.blocked_cycles::no_targets            0                       # number of cycles access was blocked
system.cpu.dtb_walker_cache.blocked::no_mshrs            0                       # number of cycles access was blocked
system.cpu.dtb_walker_cache.blocked::no_targets            0                       # number of cycles access was blocked
system.cpu.dtb_walker_cache.avg_blocked_cycles::no_mshrs          nan                       # average number of cycles each access was blocked
system.cpu.dtb_walker_cache.avg_blocked_cycles::no_targets          nan                       # average number of cycles each access was blocked
system.cpu.dtb_walker_cache.replacements            0                       # number of replacements
system.cpu.dtb_walker_cache.power_state.pwrStateResidencyTicks::UNDEFINED 192807391000                       # Cumulative time (in ticks) in various power states
system.cpu.dtb_walker_cache.tags.tagsinuse            0                       # Cycle average of tags in use
system.cpu.dtb_walker_cache.tags.total_refs            0                       # Total number of references to valid blocks.
system.cpu.dtb_walker_cache.tags.sampled_refs            0                       # Sample count of references to valid blocks.
system.cpu.dtb_walker_cache.tags.avg_refs          nan                       # Average number of references to valid blocks.
system.cpu.dtb_walker_cache.tags.warmup_cycle            0                       # Cycle when the warmup percentage was hit.
system.cpu.dtb_walker_cache.tags.tag_accesses            0                       # Number of tag accesses
system.cpu.dtb_walker_cache.tags.data_accesses            0                       # Number of data accesses
system.cpu.dtb_walker_cache.tags.power_state.pwrStateResidencyTicks::UNDEFINED 192807391000                       # Cumulative time (in ticks) in various power states
system.cpu.icache.demand_hits::.cpu.inst    139916546                       # number of demand (read+write) hits
system.cpu.icache.demand_hits::total        139916546                       # number of demand (read+write) hits
system.cpu.icache.overall_hits::.cpu.inst    139916546                       # number of overall hits
system.cpu.icache.overall_hits::total       139916546                       # number of overall hits
system.cpu.icache.demand_misses::.cpu.inst         2514                       # number of demand (read+write) misses
system.cpu.icache.demand_misses::total           2514                       # number of demand (read+write) misses
system.cpu.icache.overall_misses::.cpu.inst         2514                       # number of overall misses
system.cpu.icache.overall_misses::total          2514                       # number of overall misses
system.cpu.icache.demand_miss_latency::.cpu.inst    192282000                       # number of demand (read+write) miss cycles
system.cpu.icache.demand_miss_latency::total    192282000                       # number of demand (read+write) miss cycles
system.cpu.icache.overall_miss_latency::.cpu.inst    192282000                       # number of overall miss cycles
system.cpu.icache.overall_miss_latency::total    192282000                       # number of overall miss cycles
system.cpu.icache.demand_accesses::.cpu.inst    139919060                       # number of demand (read+write) accesses
system.cpu.icache.demand_accesses::total    139919060                       # number of demand (read+write) accesses
system.cpu.icache.overall_accesses::.cpu.inst    139919060                       # number of overall (read+write) accesses
system.cpu.icache.overall_accesses::total    139919060                       # number of overall (read+write) accesses
system.cpu.icache.demand_miss_rate::.cpu.inst     0.000018                       # miss rate for demand accesses
system.cpu.icache.demand_miss_rate::total     0.000018                       # miss rate for demand accesses
system.cpu.icache.overall_miss_rate::.cpu.inst     0.000018                       # miss rate for overall accesses
system.cpu.icache.overall_miss_rate::total     0.000018                       # miss rate for overall accesses
system.cpu.icache.demand_avg_miss_latency::.cpu.inst 76484.486874                       # average overall miss latency
system.cpu.icache.demand_avg_miss_latency::total 76484.486874                       # average overall miss latency
system.cpu.icache.overall_avg_miss_latency::.cpu.inst 76484.486874                       # average overall miss latency
system.cpu.icache.overall_avg_miss_latency::total 76484.486874                       # average overall miss latency
system.cpu.icache.blocked_cycles::no_mshrs            0                       # number of cycles access was blocked
system.cpu.icache.blocked_cycles::no_targets            0                       # number of cycles access was blocked
system.cpu.icache.blocked::no_mshrs                 0                       # number of cycles access was blocked
system.cpu.icache.blocked::no_targets               0                       # number of cycles access was blocked
system.cpu.icache.avg_blocked_cycles::no_mshrs          nan                       # average number of cycles each access was blocked
system.cpu.icache.avg_blocked_cycles::no_targets          nan                       # average number of cycles each access was blocked
system.cpu.icache.writebacks::.writebacks          331                       # number of writebacks
system.cpu.icache.writebacks::total               331                       # number of writebacks
system.cpu.icache.demand_mshr_misses::.cpu.inst         2514                       # number of demand (read+write) MSHR misses
system.cpu.icache.demand_mshr_misses::total         2514                       # number of demand (read+write) MSHR misses
system.cpu.icache.overall_mshr_misses::.cpu.inst         2514                       # number of overall MSHR misses
system.cpu.icache.overall_mshr_misses::total         2514                       # number of overall MSHR misses
system.cpu.icache.demand_mshr_miss_latency::.cpu.inst    189768000                       # number of demand (read+write) MSHR miss cycles
system.cpu.icache.demand_mshr_miss_latency::total    189768000                       # number of demand (read+write) MSHR miss cycles
system.cpu.icache.overall_mshr_miss_latency::.cpu.inst    189768000                       # number of overall MSHR miss cycles
system.cpu.icache.overall_mshr_miss_latency::total    189768000                       # number of overall MSHR miss cycles
system.cpu.icache.demand_mshr_miss_rate::.cpu.inst     0.000018                       # mshr miss rate for demand accesses
system.cpu.icache.demand_mshr_miss_rate::total     0.000018                       # mshr miss rate for demand accesses
system.cpu.icache.overall_mshr_miss_rate::.cpu.inst     0.000018                       # mshr miss rate for overall accesses
system.cpu.icache.overall_mshr_miss_rate::total     0.000018                       # mshr miss rate for overall accesses
system.cpu.icache.demand_avg_mshr_miss_latency::.cpu.inst 75484.486874                       # average overall mshr miss latency
system.cpu.icache.demand_avg_mshr_miss_latency::total 75484.486874                       # average overall mshr miss latency
system.cpu.icache.overall_avg_mshr_miss_latency::.cpu.inst 75484.486874                       # average overall mshr miss latency
system.cpu.icache.overall_avg_mshr_miss_latency::total 75484.486874                       # average overall mshr miss latency
system.cpu.icache.replacements                    331                       # number of replacements
system.cpu.icache.ReadReq_hits::.cpu.inst    139916546                       # number of ReadReq hits
system.cpu.icache.ReadReq_hits::total       139916546                       # number of ReadReq hits
system.cpu.icache.ReadReq_misses::.cpu.inst         2514                       # number of ReadReq misses
system.cpu.icache.ReadReq_misses::total          2514                       # number of ReadReq misses
system.cpu.icache.ReadReq_miss_latency::.cpu.inst    192282000                       # number of ReadReq miss cycles
system.cpu.icache.ReadReq_miss_latency::total    192282000                       # number of ReadReq miss cycles
system.cpu.icache.ReadReq_accesses::.cpu.inst    139919060                       # number of ReadReq accesses(hits+misses)
system.cpu.icache.ReadReq_accesses::total    139919060                       # number of ReadReq accesses(hits+misses)
system.cpu.icache.ReadReq_miss_rate::.cpu.inst     0.000018                       # miss rate for ReadReq accesses
system.cpu.icache.ReadReq_miss_rate::total     0.000018                       # miss rate for ReadReq accesses
system.cpu.icache.ReadReq_avg_miss_latency::.cpu.inst 76484.486874                       # average ReadReq miss latency
system.cpu.icache.ReadReq_avg_miss_latency::total 76484.486874                       # average ReadReq miss latency
system.cpu.icache.ReadReq_mshr_misses::.cpu.inst         2514                       # number of ReadReq MSHR misses
system.cpu.icache.ReadReq_mshr_misses::total         2514                       # number of ReadReq MSHR misses
system.cpu.icache.ReadReq_mshr_miss_latency::.cpu.inst    189768000                       # number of ReadReq MSHR miss cycles
system.cpu.icache.ReadReq_mshr_miss_latency::total    189768000                       # number of ReadReq MSHR miss cycles
system.cpu.icache.ReadReq_mshr_miss_rate::.cpu.inst     0.000018                       # mshr miss rate for ReadReq accesses
system.cpu.icache.ReadReq_mshr_miss_rate::total     0.000018                       # mshr miss rate for ReadReq accesses
system.cpu.icache.ReadReq_avg_mshr_miss_latency::.cpu.inst 75484.486874                       # average ReadReq mshr miss latency
system.cpu.icache.ReadReq_avg_mshr_miss_latency::total 75484.486874                       # average ReadReq mshr miss latency
system.cpu.icache.power_state.pwrStateResidencyTicks::UNDEFINED 192807391000                       # Cumulative time (in ticks) in various power states
system.cpu.icache.tags.tagsinuse          2164.091442                       # Cycle average of tags in use
system.cpu.icache.tags.total_refs           139919060                       # Total number of references to valid blocks.
system.cpu.icache.tags.sampled_refs              2514                       # Sample count of references to valid blocks.
system.cpu.icache.tags.avg_refs          55655.950676                       # Average number of references to valid blocks.
system.cpu.icache.tags.warmup_cycle             87500                       # Cycle when the warmup percentage was hit.
system.cpu.icache.tags.occ_blocks::.cpu.inst  2164.091442                       # Average occupied blocks per requestor
system.cpu.icache.tags.occ_percent::.cpu.inst     0.528343                       # Average percentage of cache occupancy
system.cpu.icache.tags.occ_percent::total     0.528343                       # Average percentage of cache occupancy
system.cpu.icache.tags.occ_task_id_blocks::1024         2183                       # Occupied blocks per task id
system.cpu.icache.tags.age_task_id_blocks_1024::4         2183                       # Occupied blocks per task id
system.cpu.icache.tags.occ_task_id_percent::1024     0.532959                       # Percentage of cache occupancy per task id
system.cpu.icache.tags.tag_accesses         279840634                       # Number of tag accesses
system.cpu.icache.tags.data_accesses        279840634                       # Number of data accesses
system.cpu.icache.tags.power_state.pwrStateResidencyTicks::UNDEFINED 192807391000                       # Cumulative time (in ticks) in various power states
system.cpu.interrupts.clk_domain.clock           8000                       # Clock period in ticks
system.cpu.itb.rdAccesses                           0                       # TLB accesses on read requests
system.cpu.itb.wrAccesses                   139919060                       # TLB accesses on write requests
system.cpu.itb.rdMisses                             0                       # TLB misses on read requests
system.cpu.itb.wrMisses                           106                       # TLB misses on write requests
system.cpu.itb.walker.power_state.pwrStateResidencyTicks::UNDEFINED 192807391000                       # Cumulative time (in ticks) in various power states
system.cpu.itb_walker_cache.blocked_cycles::no_mshrs            0                       # number of cycles access was blocked
system.cpu.itb_walker_cache.blocked_cycles::no_targets            0                       # number of cycles access was blocked
system.cpu.itb_walker_cache.blocked::no_mshrs            0                       # number of cycles access was blocked
system.cpu.itb_walker_cache.blocked::no_targets            0                       # number of cycles access was blocked
system.cpu.itb_walker_cache.avg_blocked_cycles::no_mshrs          nan                       # average number of cycles each access was blocked
system.cpu.itb_walker_cache.avg_blocked_cycles::no_targets          nan                       # average number of cycles each access was blocked
system.cpu.itb_walker_cache.replacements            0                       # number of replacements
system.cpu.itb_walker_cache.power_state.pwrStateResidencyTicks::UNDEFINED 192807391000                       # Cumulative time (in ticks) in various power states
system.cpu.itb_walker_cache.tags.tagsinuse            0                       # Cycle average of tags in use
system.cpu.itb_walker_cache.tags.total_refs            0                       # Total number of references to valid blocks.
system.cpu.itb_walker_cache.tags.sampled_refs            0                       # Sample count of references to valid blocks.
system.cpu.itb_walker_cache.tags.avg_refs          nan                       # Average number of references to valid blocks.
system.cpu.itb_walker_cache.tags.warmup_cycle            0                       # Cycle when the warmup percentage was hit.
system.cpu.itb_walker_cache.tags.tag_accesses            0                       # Number of tag accesses
system.cpu.itb_walker_cache.tags.data_accesses            0                       # Number of data accesses
system.cpu.itb_walker_cache.tags.power_state.pwrStateResidencyTicks::UNDEFINED 192807391000                       # Cumulative time (in ticks) in various power states
system.cpu.power_state.pwrStateResidencyTicks::ON 192807391000                       # Cumulative time (in ticks) in various power states
system.cpu.thread_0.numInsts                        0                       # Number of Instructions committed
system.cpu.thread_0.numOps                          0                       # Number of Ops committed
system.cpu.thread_0.numMemRefs                      0                       # Number of Memory References
system.cpu_clk_domain.clock                       500                       # Clock period in ticks
system.cpu_voltage_domain.voltage                   1                       # Voltage in Volts
system.l2.demand_hits::.cpu.inst                   26                       # number of demand (read+write) hits
system.l2.demand_hits::.cpu.data                47325                       # number of demand (read+write) hits
system.l2.demand_hits::total                    47351                       # number of demand (read+write) hits
system.l2.overall_hits::.cpu.inst                  26                       # number of overall hits
system.l2.overall_hits::.cpu.data               47325                       # number of overall hits
system.l2.overall_hits::total                   47351                       # number of overall hits
system.l2.demand_misses::.cpu.inst               2488                       # number of demand (read+write) misses
system.l2.demand_misses::.cpu.data              17249                       # number of demand (read+write) misses
system.l2.demand_misses::total                  19737                       # number of demand (read+write) misses
system.l2.overall_misses::.cpu.inst              2488                       # number of overall misses
system.l2.overall_misses::.cpu.data             17249                       # number of overall misses
system.l2.overall_misses::total                 19737                       # number of overall misses
system.l2.demand_miss_latency::.cpu.inst    185724000                       # number of demand (read+write) miss cycles
system.l2.demand_miss_latency::.cpu.data   1357325000                       # number of demand (read+write) miss cycles
system.l2.demand_miss_latency::total       1543049000                       # number of demand (read+write) miss cycles
system.l2.overall_miss_latency::.cpu.inst    185724000                       # number of overall miss cycles
system.l2.overall_miss_latency::.cpu.data   1357325000                       # number of overall miss cycles
system.l2.overall_miss_latency::total      1543049000                       # number of overall miss cycles
system.l2.demand_accesses::.cpu.inst             2514                       # number of demand (read+write) accesses
system.l2.demand_accesses::.cpu.data            64574                       # number of demand (read+write) accesses
system.l2.demand_accesses::total                67088                       # number of demand (read+write) accesses
system.l2.overall_accesses::.cpu.inst            2514                       # number of overall (read+write) accesses
system.l2.overall_accesses::.cpu.data           64574                       # number of overall (read+write) accesses
system.l2.overall_accesses::total               67088                       # number of overall (read+write) accesses
system.l2.demand_miss_rate::.cpu.inst        0.989658                       # miss rate for demand accesses
system.l2.demand_miss_rate::.cpu.data        0.267120                       # miss rate for demand accesses
system.l2.demand_miss_rate::total            0.294196                       # miss rate for demand accesses
system.l2.overall_miss_rate::.cpu.inst       0.989658                       # miss rate for overall accesses
system.l2.overall_miss_rate::.cpu.data       0.267120                       # miss rate for overall accesses
system.l2.overall_miss_rate::total           0.294196                       # miss rate for overall accesses
system.l2.demand_avg_miss_latency::.cpu.inst 74647.909968                       # average overall miss latency
system.l2.demand_avg_miss_latency::.cpu.data 78690.068990                       # average overall miss latency
system.l2.demand_avg_miss_latency::total 78180.523889                       # average overall miss latency
system.l2.overall_avg_miss_latency::.cpu.inst 74647.909968                       # average overall miss latency
system.l2.overall_avg_miss_latency::.cpu.data 78690.068990                       # average overall miss latency
system.l2.overall_avg_miss_latency::total 78180.523889                       # average overall miss latency
system.l2.blocked_cycles::no_mshrs                  0                       # number of cycles access was blocked
system.l2.blocked_cycles::no_targets                0                       # number of cycles access was blocked
system.l2.blocked::no_mshrs                         0                       # number of cycles access was blocked
system.l2.blocked::no_targets                       0                       # number of cycles access was blocked
system.l2.avg_blocked_cycles::no_mshrs            nan                       # average number of cycles each access was blocked
system.l2.avg_blocked_cycles::no_targets          nan                       # average number of cycles each access was blocked
system.l2.writebacks::.writebacks                9405                       # number of writebacks
system.l2.writebacks::total                      9405                       # number of writebacks
system.l2.demand_mshr_misses::.cpu.inst          2488                       # number of demand (read+write) MSHR misses
system.l2.demand_mshr_misses::.cpu.data         17249                       # number of demand (read+write) MSHR misses
system.l2.demand_mshr_misses::total             19737                       # number of demand (read+write) MSHR misses
system.l2.overall_mshr_misses::.cpu.inst         2488                       # number of overall MSHR misses
system.l2.overall_mshr_misses::.cpu.data        17249                       # number of overall MSHR misses
system.l2.overall_mshr_misses::total            19737                       # number of overall MSHR misses
system.l2.demand_mshr_miss_latency::.cpu.inst    160844000                       # number of demand (read+write) MSHR miss cycles
system.l2.demand_mshr_miss_latency::.cpu.data   1184835000                       # number of demand (read+write) MSHR miss cycles
system.l2.demand_mshr_miss_latency::total   1345679000                       # number of demand (read+write) MSHR miss cycles
system.l2.overall_mshr_miss_latency::.cpu.inst    160844000                       # number of overall MSHR miss cycles
system.l2.overall_mshr_miss_latency::.cpu.data   1184835000                       # number of overall MSHR miss cycles
system.l2.overall_mshr_miss_latency::total   1345679000                       # number of overall MSHR miss cycles
system.l2.demand_mshr_miss_rate::.cpu.inst     0.989658                       # mshr miss rate for demand accesses
system.l2.demand_mshr_miss_rate::.cpu.data     0.267120                       # mshr miss rate for demand accesses
system.l2.demand_mshr_miss_rate::total       0.294196                       # mshr miss rate for demand accesses
system.l2.overall_mshr_miss_rate::.cpu.inst     0.989658                       # mshr miss rate for overall accesses
system.l2.overall_mshr_miss_rate::.cpu.data     0.267120                       # mshr miss rate for overall accesses
system.l2.overall_mshr_miss_rate::total      0.294196                       # mshr miss rate for overall accesses
system.l2.demand_avg_mshr_miss_latency::.cpu.inst 64647.909968                       # average overall mshr miss latency
system.l2.demand_avg_mshr_miss_latency::.cpu.data 68690.068990                       # average overall mshr miss latency
system.l2.demand_avg_mshr_miss_latency::total 68180.523889                       # average overall mshr miss latency
system.l2.overall_avg_mshr_miss_latency::.cpu.inst 64647.909968                       # average overall mshr miss latency
system.l2.overall_avg_mshr_miss_latency::.cpu.data 68690.068990                       # average overall mshr miss latency
system.l2.overall_avg_mshr_miss_latency::total 68180.523889                       # average overall mshr miss latency
system.l2.replacements                          30434                       # number of replacements
system.l2.WritebackDirty_hits::.writebacks        57532                       # number of WritebackDirty hits
system.l2.WritebackDirty_hits::total            57532                       # number of WritebackDirty hits
system.l2.WritebackDirty_accesses::.writebacks        57532                       # number of WritebackDirty accesses(hits+misses)
system.l2.WritebackDirty_accesses::total        57532                       # number of WritebackDirty accesses(hits+misses)
system.l2.WritebackClean_hits::.writebacks          331                       # number of WritebackClean hits
system.l2.WritebackClean_hits::total              331                       # number of WritebackClean hits
system.l2.WritebackClean_accesses::.writebacks          331                       # number of WritebackClean accesses(hits+misses)
system.l2.WritebackClean_accesses::total          331                       # number of WritebackClean accesses(hits+misses)
system.l2.CleanEvict_mshr_misses::.writebacks         1242                       # number of CleanEvict MSHR misses
system.l2.CleanEvict_mshr_misses::total          1242                       # number of CleanEvict MSHR misses
system.l2.CleanEvict_mshr_miss_rate::.writebacks          inf                       # mshr miss rate for CleanEvict accesses
system.l2.CleanEvict_mshr_miss_rate::total          inf                       # mshr miss rate for CleanEvict accesses
system.l2.ReadExReq_hits::.cpu.data             34221                       # number of ReadExReq hits
system.l2.ReadExReq_hits::total                 34221                       # number of ReadExReq hits
system.l2.ReadExReq_misses::.cpu.data           14431                       # number of ReadExReq misses
system.l2.ReadExReq_misses::total               14431                       # number of ReadExReq misses
system.l2.ReadExReq_miss_latency::.cpu.data   1140102500                       # number of ReadExReq miss cycles
system.l2.ReadExReq_miss_latency::total    1140102500                       # number of ReadExReq miss cycles
system.l2.ReadExReq_accesses::.cpu.data         48652                       # number of ReadExReq accesses(hits+misses)
system.l2.ReadExReq_accesses::total             48652                       # number of ReadExReq accesses(hits+misses)
system.l2.ReadExReq_miss_rate::.cpu.data     0.296617                       # miss rate for ReadExReq accesses
system.l2.ReadExReq_miss_rate::total         0.296617                       # miss rate for ReadExReq accesses
system.l2.ReadExReq_avg_miss_latency::.cpu.data 79003.707297                       # average ReadExReq miss latency
system.l2.ReadExReq_avg_miss_latency::total 79003.707297                       # average ReadExReq miss latency
system.l2.ReadExReq_mshr_misses::.cpu.data        14431                       # number of ReadExReq MSHR misses
system.l2.ReadExReq_mshr_misses::total          14431                       # number of ReadExReq MSHR misses
system.l2.ReadExReq_mshr_miss_latency::.cpu.data    995792500                       # number of ReadExReq MSHR miss cycles
system.l2.ReadExReq_mshr_miss_latency::total    995792500                       # number of ReadExReq MSHR miss cycles
system.l2.ReadExReq_mshr_miss_rate::.cpu.data     0.296617                       # mshr miss rate for ReadExReq accesses
system.l2.ReadExReq_mshr_miss_rate::total     0.296617                       # mshr miss rate for ReadExReq accesses
system.l2.ReadExReq_avg_mshr_miss_latency::.cpu.data 69003.707297                       # average ReadExReq mshr miss latency
system.l2.ReadExReq_avg_mshr_miss_latency::total 69003.707297                       # average ReadExReq mshr miss latency
system.l2.ReadCleanReq_hits::.cpu.inst             26                       # number of ReadCleanReq hits
system.l2.ReadCleanReq_hits::total                 26                       # number of ReadCleanReq hits
system.l2.ReadCleanReq_misses::.cpu.inst         2488                       # number of ReadCleanReq misses
system.l2.ReadCleanReq_misses::total             2488                       # number of ReadCleanReq misses
system.l2.ReadCleanReq_miss_latency::.cpu.inst    185724000                       # number of ReadCleanReq miss cycles
system.l2.ReadCleanReq_miss_latency::total    185724000                       # number of ReadCleanReq miss cycles
system.l2.ReadCleanReq_accesses::.cpu.inst         2514                       # number of ReadCleanReq accesses(hits+misses)
system.l2.ReadCleanReq_accesses::total           2514                       # number of ReadCleanReq accesses(hits+misses)
system.l2.ReadCleanReq_miss_rate::.cpu.inst     0.989658                       # miss rate for ReadCleanReq accesses
system.l2.ReadCleanReq_miss_rate::total      0.989658                       # miss rate for ReadCleanReq accesses
system.l2.ReadCleanReq_avg_miss_latency::.cpu.inst 74647.909968                       # average ReadCleanReq miss latency
system.l2.ReadCleanReq_avg_miss_latency::total 74647.909968                       # average ReadCleanReq miss latency
system.l2.ReadCleanReq_mshr_misses::.cpu.inst         2488                       # number of ReadCleanReq MSHR misses
system.l2.ReadCleanReq_mshr_misses::total         2488                       # number of ReadCleanReq MSHR misses
system.l2.ReadCleanReq_mshr_miss_latency::.cpu.inst    160844000                       # number of ReadCleanReq MSHR miss cycles
system.l2.ReadCleanReq_mshr_miss_latency::total    160844000                       # number of ReadCleanReq MSHR miss cycles
system.l2.ReadCleanReq_mshr_miss_rate::.cpu.inst     0.989658                       # mshr miss rate for ReadCleanReq accesses
system.l2.ReadCleanReq_mshr_miss_rate::total     0.989658                       # mshr miss rate for ReadCleanReq accesses
system.l2.ReadCleanReq_avg_mshr_miss_latency::.cpu.inst 64647.909968                       # average ReadCleanReq mshr miss latency
system.l2.ReadCleanReq_avg_mshr_miss_latency::total 64647.909968                       # average ReadCleanReq mshr miss latency
system.l2.ReadSharedReq_hits::.cpu.data         13104                       # number of ReadSharedReq hits
system.l2.ReadSharedReq_hits::total             13104                       # number of ReadSharedReq hits
system.l2.ReadSharedReq_misses::.cpu.data         2818                       # number of ReadSharedReq misses
system.l2.ReadSharedReq_misses::total            2818                       # number of ReadSharedReq misses
system.l2.ReadSharedReq_miss_latency::.cpu.data    217222500                       # number of ReadSharedReq miss cycles
system.l2.ReadSharedReq_miss_latency::total    217222500                       # number of ReadSharedReq miss cycles
system.l2.ReadSharedReq_accesses::.cpu.data        15922                       # number of ReadSharedReq accesses(hits+misses)
system.l2.ReadSharedReq_accesses::total         15922                       # number of ReadSharedReq accesses(hits+misses)
system.l2.ReadSharedReq_miss_rate::.cpu.data     0.176988                       # miss rate for ReadSharedReq accesses
system.l2.ReadSharedReq_miss_rate::total     0.176988                       # miss rate for ReadSharedReq accesses
system.l2.ReadSharedReq_avg_miss_latency::.cpu.data 77083.924769                       # average ReadSharedReq miss latency
system.l2.ReadSharedReq_avg_miss_latency::total 77083.924769                       # average ReadSharedReq miss latency
system.l2.ReadSharedReq_mshr_misses::.cpu.data         2818                       # number of ReadSharedReq MSHR misses
system.l2.ReadSharedReq_mshr_misses::total         2818                       # number of ReadSharedReq MSHR misses
system.l2.ReadSharedReq_mshr_miss_latency::.cpu.data    189042500                       # number of ReadSharedReq MSHR miss cycles
system.l2.ReadSharedReq_mshr_miss_latency::total    189042500                       # number of ReadSharedReq MSHR miss cycles
system.l2.ReadSharedReq_mshr_miss_rate::.cpu.data     0.176988                       # mshr miss rate for ReadSharedReq accesses
system.l2.ReadSharedReq_mshr_miss_rate::total     0.176988                       # mshr miss rate for ReadSharedReq accesses
system.l2.ReadSharedReq_avg_mshr_miss_latency::.cpu.data 67083.924769                       # average ReadSharedReq mshr miss latency
system.l2.ReadSharedReq_avg_mshr_miss_latency::total 67083.924769                       # average ReadSharedReq mshr miss latency
system.l2.power_state.pwrStateResidencyTicks::UNDEFINED 192807391000                       # Cumulative time (in ticks) in various power states
system.l2.tags.tagsinuse                  4084.892448                       # Cycle average of tags in use
system.l2.tags.total_refs                      126655                       # Total number of references to valid blocks.
system.l2.tags.sampled_refs                     34530                       # Sample count of references to valid blocks.
system.l2.tags.avg_refs                      3.667970                       # Average number of references to valid blocks.
system.l2.tags.warmup_cycle                     77000                       # Cycle when the warmup percentage was hit.
system.l2.tags.occ_blocks::.writebacks    1972.503722                       # Average occupied blocks per requestor
system.l2.tags.occ_blocks::.cpu.inst        59.825686                       # Average occupied blocks per requestor
system.l2.tags.occ_blocks::.cpu.data      2052.563040                       # Average occupied blocks per requestor
system.l2.tags.occ_percent::.writebacks      0.481568                       # Average percentage of cache occupancy
system.l2.tags.occ_percent::.cpu.inst        0.014606                       # Average percentage of cache occupancy
system.l2.tags.occ_percent::.cpu.data        0.501114                       # Average percentage of cache occupancy
system.l2.tags.occ_percent::total            0.997288                       # Average percentage of cache occupancy
system.l2.tags.occ_task_id_blocks::1024          4096                       # Occupied blocks per task id
system.l2.tags.age_task_id_blocks_1024::3           53                       # Occupied blocks per task id
system.l2.tags.age_task_id_blocks_1024::4         4043                       # Occupied blocks per task id
system.l2.tags.occ_task_id_percent::1024            1                       # Percentage of cache occupancy per task id
system.l2.tags.tag_accesses                  32776162                       # Number of tag accesses
system.l2.tags.data_accesses                 32776162                       # Number of data accesses
system.l2.tags.power_state.pwrStateResidencyTicks::UNDEFINED 192807391000                       # Cumulative time (in ticks) in various power states
system.mem_ctrls.avgPriority_.writebacks::samples      6494.00                       # Average QoS priority value for accepted requests
system.mem_ctrls.avgPriority_.cpu.inst::samples      2488.00                       # Average QoS priority value for accepted requests
system.mem_ctrls.avgPriority_.cpu.data::samples     17048.00                       # Average QoS priority value for accepted requests
system.mem_ctrls.priorityMinLatency      0.000000018750                       # per QoS priority minimum request to response latency (s)
system.mem_ctrls.priorityMaxLatency      0.083507152500                       # per QoS priority maximum request to response latency (s)
system.mem_ctrls.numReadWriteTurnArounds          377                       # Number of turnarounds from READ to WRITE
system.mem_ctrls.numWriteReadTurnArounds          377                       # Number of turnarounds from WRITE to READ
system.mem_ctrls.numStayReadState               97733                       # Number of times bus staying in READ state
system.mem_ctrls.numStayWriteState               6104                       # Number of times bus staying in WRITE state
system.mem_ctrls.readReqs                       19737                       # Number of read requests accepted
system.mem_ctrls.writeReqs                       9405                       # Number of write requests accepted
system.mem_ctrls.readBursts                     19737                       # Number of controller read bursts, including those serviced by the write queue
system.mem_ctrls.writeBursts                     9405                       # Number of controller write bursts, including those merged in the write queue
system.mem_ctrls.servicedByWrQ                    201                       # Number of controller read bursts serviced by the write queue
system.mem_ctrls.mergedWrBursts                  2911                       # Number of controller write bursts merged with an existing one
system.mem_ctrls.neitherReadNorWriteReqs            0                       # Number of requests that are neither read nor write
system.mem_ctrls.avgRdQLen                       1.00                       # Average read queue length when enqueuing
system.mem_ctrls.avgWrQLen                      22.31                       # Average write queue length when enqueuing
system.mem_ctrls.numRdRetry                         0                       # Number of times read queue was full causing retry
system.mem_ctrls.numWrRetry                         0                       # Number of times write queue was full causing retry
system.mem_ctrls.readPktSize::0                     0                       # Read request sizes (log2)
system.mem_ctrls.readPktSize::1                     0                       # Read request sizes (log2)
system.mem_ctrls.readPktSize::2                     0                       # Read request sizes (log2)
system.mem_ctrls.readPktSize::3                     0                       # Read request sizes (log2)
system.mem_ctrls.readPktSize::4                     0                       # Read request sizes (log2)
system.mem_ctrls.readPktSize::5                 19737                       # Read request sizes (log2)
system.mem_ctrls.writePktSize::0                    0                       # Write request sizes (log2)
system.mem_ctrls.writePktSize::1                    0                       # Write request sizes (log2)
system.mem_ctrls.writePktSize::2                    0                       # Write request sizes (log2)
system.mem_ctrls.writePktSize::3                    0                       # Write request sizes (log2)
system.mem_ctrls.writePktSize::4                    0                       # Write request sizes (log2)
system.mem_ctrls.writePktSize::5                 9405                       # Write request sizes (log2)
system.mem_ctrls.rdQLenPdf::0                   18868                       # What read queue length does an incoming req see
system.mem_ctrls.rdQLenPdf::1                     658                       # What read queue length does an incoming req see
system.mem_ctrls.rdQLenPdf::2                      10                       # What read queue length does an incoming req see
system.mem_ctrls.rdQLenPdf::3                       0                       # What read queue length does an incoming req see
system.mem_ctrls.rdQLenPdf::4                       0                       # What read queue length does an incoming req see
system.mem_ctrls.rdQLenPdf::5                       0                       # What read queue length does an incoming req see
system.mem_ctrls.rdQLenPdf::6                       0                       # What read queue length does an incoming req see
system.mem_ctrls.rdQLenPdf::7                       0                       # What read queue length does an incoming req see
system.mem_ctrls.rdQLenPdf::8                       0                       # What read queue length does an incoming req see
system.mem_ctrls.rdQLenPdf::9                       0                       # What read queue length does an incoming req see
system.mem_ctrls.rdQLenPdf::10                      0                       # What read queue length does an incoming req see
system.mem_ctrls.rdQLenPdf::11                      0                       # What read queue length does an incoming req see
system.mem_ctrls.rdQLenPdf::12                      0                       # What read queue length does an incoming req see
system.mem_ctrls.rdQLenPdf::13                      0                       # What read queue length does an incoming req see
system.mem_ctrls.rdQLenPdf::14                      0                       # What read queue length does an incoming req see
system.mem_ctrls.rdQLenPdf::15                      0                       # What read queue length does an incoming req see
system.mem_ctrls.rdQLenPdf::16                      0                       # What read queue length does an incoming req see
system.mem_ctrls.rdQLenPdf::17                      0                       # What read queue length does an incoming req see
system.mem_ctrls.rdQLenPdf::18                      0                       # What read queue length does an incoming req see
system.mem_ctrls.rdQLenPdf::19                      0                       # What read queue length does an incoming req see
system.mem_ctrls.rdQLenPdf::20                      0                       # What read queue length does an incoming req see
system.mem_ctrls.rdQLenPdf::21                      0                       # What read queue length does an incoming req see
system.mem_ctrls.rdQLenPdf::22                      0                       # What read queue length does an incoming req see
system.mem_ctrls.rdQLenPdf::23                      0                       # What read queue length does an incoming req see
system.mem_ctrls.rdQLenPdf::24                      0                       # What read queue length does an incoming req see
system.mem_ctrls.rdQLenPdf::25                      0                       # What read queue length does an incoming req see
system.mem_ctrls.rdQLenPdf::26                      0                       # What read queue length does an incoming req see
system.mem_ctrls.rdQLenPdf::27                      0                       # What read queue length does an incoming req see
system.mem_ctrls.rdQLenPdf::28                      0                       # What read queue length does an incoming req see
system.mem_ctrls.rdQLenPdf::29                      0                       # What read queue length does an incoming req see
system.mem_ctrls.rdQLenPdf::30                      0                       # What read queue length does an incoming req see
system.mem_ctrls.rdQLenPdf::31                      0                       # What read queue length does an incoming req see
system.mem_ctrls.wrQLenPdf::0                       1                       # What write queue length does an incoming req see
system.mem_ctrls.wrQLenPdf::1                       1                       # What write queue length does an incoming req see
system.mem_ctrls.wrQLenPdf::2                       1                       # What write queue length does an incoming req see
system.mem_ctrls.wrQLenPdf::3                       1                       # What write queue length does an incoming req see
system.mem_ctrls.wrQLenPdf::4                       1                       # What write queue length does an incoming req see
system.mem_ctrls.wrQLenPdf::5                       1                       # What write queue length does an incoming req see
system.mem_ctrls.wrQLenPdf::6                       1                       # What write queue length does an incoming req see
system.mem_ctrls.wrQLenPdf::7                       1                       # What write queue length does an incoming req see
system.mem_ctrls.wrQLenPdf::8                       1                       # What write queue length does an incoming req see
system.mem_ctrls.wrQLenPdf::9                       1                       # What write queue length does an incoming req see
system.mem_ctrls.wrQLenPdf::10                      1                       # What write queue length does an incoming req see
system.mem_ctrls.wrQLenPdf::11                      1                       # What write queue length does an incoming req see
system.mem_ctrls.wrQLenPdf::12                      1                       # What write queue length does an incoming req see
system.mem_ctrls.wrQLenPdf::13                      1                       # What write queue length does an incoming req see
system.mem_ctrls.wrQLenPdf::14                      1                       # What write queue length does an incoming req see
system.mem_ctrls.wrQLenPdf::15                    211                       # What write queue length does an incoming req see
system.mem_ctrls.wrQLenPdf::16                    220                       # What write queue length does an incoming req see
system.mem_ctrls.wrQLenPdf::17                    361                       # What write queue length does an incoming req see
system.mem_ctrls.wrQLenPdf::18                    378                       # What write queue length does an incoming req see
system.mem_ctrls.wrQLenPdf::19                    378                       # What write queue length does an incoming req see
system.mem_ctrls.wrQLenPdf::20                    378                       # What write queue length does an incoming req see
system.mem_ctrls.wrQLenPdf::21                    378                       # What write queue length does an incoming req see
system.mem_ctrls.wrQLenPdf::22                    380                       # What write queue length does an incoming req see
system.mem_ctrls.wrQLenPdf::23                    384                       # What write queue length does an incoming req see
system.mem_ctrls.wrQLenPdf::24                    381                       # What write queue length does an incoming req see
system.mem_ctrls.wrQLenPdf::25                    380                       # What write queue length does an incoming req see
system.mem_ctrls.wrQLenPdf::26                    383                       # What write queue length does an incoming req see
system.mem_ctrls.wrQLenPdf::27                    379                       # What write queue length does an incoming req see
system.mem_ctrls.wrQLenPdf::28                    378                       # What write queue length does an incoming req see
system.mem_ctrls.wrQLenPdf::29                    378                       # What write queue length does an incoming req see
system.mem_ctrls.wrQLenPdf::30                    377                       # What write queue length does an incoming req see
system.mem_ctrls.wrQLenPdf::31                    377                       # What write queue length does an incoming req see
system.mem_ctrls.wrQLenPdf::32                    377                       # What write queue length does an incoming req see
system.mem_ctrls.wrQLenPdf::33                      1                       # What write queue length does an incoming req see
system.mem_ctrls.wrQLenPdf::34                      0                       # What write queue length does an incoming req see
system.mem_ctrls.wrQLenPdf::35                      0                       # What write queue length does an incoming req see
system.mem_ctrls.wrQLenPdf::36                      0                       # What write queue length does an incoming req see
system.mem_ctrls.wrQLenPdf::37                      0                       # What write queue length does an incoming req see
system.mem_ctrls.wrQLenPdf::38                      0                       # What write queue length does an incoming req see
system.mem_ctrls.wrQLenPdf::39                      0                       # What write queue length does an incoming req see
system.mem_ctrls.wrQLenPdf::40                      0                       # What write queue length does an incoming req see
system.mem_ctrls.wrQLenPdf::41                      0                       # What write queue length does an incoming req see
system.mem_ctrls.wrQLenPdf::42                      0                       # What write queue length does an incoming req see
system.mem_ctrls.wrQLenPdf::43                      0                       # What write queue length does an incoming req see
system.mem_ctrls.wrQLenPdf::44                      0                       # What write queue length does an incoming req see
system.mem_ctrls.wrQLenPdf::45                      0                       # What write queue length does an incoming req see
system.mem_ctrls.wrQLenPdf::46                      0                       # What write queue length does an incoming req see
system.mem_ctrls.wrQLenPdf::47                      0                       # What write queue length does an incoming req see
system.mem_ctrls.wrQLenPdf::48                      0                       # What write queue length does an incoming req see
system.mem_ctrls.wrQLenPdf::49                      0                       # What write queue length does an incoming req see
system.mem_ctrls.wrQLenPdf::50                      0                       # What write queue length does an incoming req see
system.mem_ctrls.wrQLenPdf::51                      0                       # What write queue length does an incoming req see
system.mem_ctrls.wrQLenPdf::52                      0                       # What write queue length does an incoming req see
system.mem_ctrls.wrQLenPdf::53                      0                       # What write queue length does an incoming req see
system.mem_ctrls.wrQLenPdf::54                      0                       # What write queue length does an incoming req see
system.mem_ctrls.wrQLenPdf::55                      0                       # What write queue length does an incoming req see
system.mem_ctrls.wrQLenPdf::56                      0                       # What write queue length does an incoming req see
system.mem_ctrls.wrQLenPdf::57                      0                       # What write queue length does an incoming req see
system.mem_ctrls.wrQLenPdf::58                      0                       # What write queue length does an incoming req see
system.mem_ctrls.wrQLenPdf::59                      0                       # What write queue length does an incoming req see
system.mem_ctrls.wrQLenPdf::60                      0                       # What write queue length does an incoming req see
system.mem_ctrls.wrQLenPdf::61                      0                       # What write queue length does an incoming req see
system.mem_ctrls.wrQLenPdf::62                      0                       # What write queue length does an incoming req see
system.mem_ctrls.wrQLenPdf::63                      0                       # What write queue length does an incoming req see
system.mem_ctrls.rdPerTurnAround::samples          377                       # Reads before turning the bus around for writes
system.mem_ctrls.rdPerTurnAround::mean      51.790451                       # Reads before turning the bus around for writes
system.mem_ctrls.rdPerTurnAround::stdev    432.193559                       # Reads before turning the bus around for writes
system.mem_ctrls.rdPerTurnAround::0-511           376     99.73%     99.73% # Reads before turning the bus around for writes
system.mem_ctrls.rdPerTurnAround::8192-8703            1      0.27%    100.00% # Reads before turning the bus around for writes
system.mem_ctrls.rdPerTurnAround::total           377                       # Reads before turning the bus around for writes
system.mem_ctrls.wrPerTurnAround::samples          377                       # Writes before turning the bus around for reads
system.mem_ctrls.wrPerTurnAround::mean      17.177719                       # Writes before turning the bus around for reads
system.mem_ctrls.wrPerTurnAround::gmean     17.145509                       # Writes before turning the bus around for reads
system.mem_ctrls.wrPerTurnAround::stdev      1.050700                       # Writes before turning the bus around for reads
system.mem_ctrls.wrPerTurnAround::16              161     42.71%     42.71% # Writes before turning the bus around for reads
system.mem_ctrls.wrPerTurnAround::17                6      1.59%     44.30% # Writes before turning the bus around for reads
[...]
system.mem_ctrls.dram.bw_total::.cpu.data      2862795                       # Total bandwidth to/from this memory (bytes/s)
system.mem_ctrls.dram.bw_total::total         4836661                       # Total bandwidth to/from this memory (bytes/s)
system.mem_ctrls.dram.readBursts                19536                       # Number of DRAM read bursts
system.mem_ctrls.dram.writeBursts                6476                       # Number of DRAM write bursts
system.mem_ctrls.dram.perBankRdBursts::0         1264                       # Per bank write bursts
system.mem_ctrls.dram.perBankRdBursts::1         1656                       # Per bank write bursts
system.mem_ctrls.dram.perBankRdBursts::2         1343                       # Per bank write bursts
system.mem_ctrls.dram.perBankRdBursts::3         1596                       # Per bank write bursts
system.mem_ctrls.dram.perBankRdBursts::4         1417                       # Per bank write bursts
system.mem_ctrls.dram.perBankRdBursts::5         1288                       # Per bank write bursts
system.mem_ctrls.dram.perBankRdBursts::6         1332                       # Per bank write bursts
system.mem_ctrls.dram.perBankRdBursts::7         1236                       # Per bank write bursts
system.mem_ctrls.dram.perBankRdBursts::8         1316                       # Per bank write bursts
system.mem_ctrls.dram.perBankRdBursts::9         1087                       # Per bank write bursts
system.mem_ctrls.dram.perBankRdBursts::10          704                       # Per bank write bursts
system.mem_ctrls.dram.perBankRdBursts::11         1019                       # Per bank write bursts
system.mem_ctrls.dram.perBankRdBursts::12          882                       # Per bank write bursts
system.mem_ctrls.dram.perBankRdBursts::13         1030                       # Per bank write bursts
system.mem_ctrls.dram.perBankRdBursts::14         1130                       # Per bank write bursts
system.mem_ctrls.dram.perBankRdBursts::15         1236                       # Per bank write bursts
system.mem_ctrls.dram.perBankWrBursts::0          458                       # Per bank write bursts
system.mem_ctrls.dram.perBankWrBursts::1          508                       # Per bank write bursts
system.mem_ctrls.dram.perBankWrBursts::2          423                       # Per bank write bursts
system.mem_ctrls.dram.perBankWrBursts::3          489                       # Per bank write bursts
system.mem_ctrls.dram.perBankWrBursts::4          373                       # Per bank write bursts
system.mem_ctrls.dram.perBankWrBursts::5          524                       # Per bank write bursts
system.mem_ctrls.dram.perBankWrBursts::6          537                       # Per bank write bursts
system.mem_ctrls.dram.perBankWrBursts::7          598                       # Per bank write bursts
system.mem_ctrls.dram.perBankWrBursts::8          471                       # Per bank write bursts
system.mem_ctrls.dram.perBankWrBursts::9          299                       # Per bank write bursts
system.mem_ctrls.dram.perBankWrBursts::10          241                       # Per bank write bursts
system.mem_ctrls.dram.perBankWrBursts::11          350                       # Per bank write bursts
system.mem_ctrls.dram.perBankWrBursts::12          245                       # Per bank write bursts
system.mem_ctrls.dram.perBankWrBursts::13          300                       # Per bank write bursts
system.mem_ctrls.dram.perBankWrBursts::14          250                       # Per bank write bursts
system.mem_ctrls.dram.perBankWrBursts::15          410                       # Per bank write bursts
system.mem_ctrls.dram.totQLat               175610250                       # Total ticks spent queuing
system.mem_ctrls.dram.totBusLat              97680000                       # Total ticks spent in databus transfers
system.mem_ctrls.dram.totMemAccLat          541910250                       # Total ticks spent from burst creation until serviced by the DRAM
system.mem_ctrls.dram.avgQLat                 8989.06                       # Average queueing delay per DRAM burst
system.mem_ctrls.dram.avgBusLat               5000.00                       # Average bus latency per DRAM burst
system.mem_ctrls.dram.avgMemAccLat           27739.06                       # Average memory access latency per DRAM burst
system.mem_ctrls.dram.readRowHits               14402                       # Number of row buffer hits during reads
system.mem_ctrls.dram.writeRowHits               5658                       # Number of row buffer hits during writes
system.mem_ctrls.dram.readRowHitRate            73.72                       # Row buffer hit rate for reads
system.mem_ctrls.dram.writeRowHitRate           87.37                       # Row buffer hit rate for writes
system.mem_ctrls.dram.bytesPerActivate::samples         5952                       # Bytes accessed per row activation
system.mem_ctrls.dram.bytesPerActivate::mean   279.698925                       # Bytes accessed per row activation
system.mem_ctrls.dram.bytesPerActivate::gmean   167.543156                       # Bytes accessed per row activation
system.mem_ctrls.dram.bytesPerActivate::stdev   320.772175                       # Bytes accessed per row activation
system.mem_ctrls.dram.bytesPerActivate::0-127         1916     32.19%     32.19% # Bytes accessed per row activation
system.mem_ctrls.dram.bytesPerActivate::128-255         2164     36.36%     68.55% # Bytes accessed per row activation
system.mem_ctrls.dram.bytesPerActivate::256-383          585      9.83%     78.38% # Bytes accessed per row activation
system.mem_ctrls.dram.bytesPerActivate::384-511          141      2.37%     80.75% # Bytes accessed per row activation
system.mem_ctrls.dram.bytesPerActivate::512-639          143      2.40%     83.15% # Bytes accessed per row activation
system.mem_ctrls.dram.bytesPerActivate::640-767          129      2.17%     85.32% # Bytes accessed per row activation
system.mem_ctrls.dram.bytesPerActivate::768-895          101      1.70%     87.01% # Bytes accessed per row activation
system.mem_ctrls.dram.bytesPerActivate::896-1023           83      1.39%     88.41% # Bytes accessed per row activation
system.mem_ctrls.dram.bytesPerActivate::1024-1151          690     11.59%    100.00% # Bytes accessed per row activation
system.mem_ctrls.dram.bytesPerActivate::total         5952                       # Bytes accessed per row activation
system.mem_ctrls.dram.bytesRead               1250304                       # Total number of bytes read from DRAM
system.mem_ctrls.dram.bytesWritten             414464                       # Total number of bytes written to DRAM
system.mem_ctrls.dram.avgRdBW                6.484731                       # Average DRAM read bandwidth in MiBytes/s
system.mem_ctrls.dram.avgWrBW                2.149627                       # Average DRAM write bandwidth in MiBytes/s
system.mem_ctrls.dram.peakBW                 12800.00                       # Theoretical peak bandwidth in MiByte/s
system.mem_ctrls.dram.busUtil                    0.07                       # Data bus utilization in percentage
system.mem_ctrls.dram.busUtilRead                0.05                       # Data bus utilization in percentage for reads
system.mem_ctrls.dram.busUtilWrite               0.02                       # Data bus utilization in percentage for writes
system.mem_ctrls.dram.pageHitRate               77.12                       # Row buffer hit rate, read and write combined
system.mem_ctrls.dram.power_state.pwrStateResidencyTicks::UNDEFINED 192807391000                       # Cumulative time (in ticks) in various power states
system.mem_ctrls.dram.rank0.actEnergy        23754780                       # Energy for activate commands per rank (pJ)
system.mem_ctrls.dram.rank0.preEnergy        12625965                       # Energy for precharge commands per rank (pJ)
system.mem_ctrls.dram.rank0.readEnergy       79482480                       # Energy for read commands per rank (pJ)
system.mem_ctrls.dram.rank0.writeEnergy      20410200                       # Energy for write commands per rank (pJ)
system.mem_ctrls.dram.rank0.refreshEnergy 15219715680.000002                       # Energy for refresh commands per rank (pJ)
system.mem_ctrls.dram.rank0.actBackEnergy   7014804180                       # Energy for active background per rank (pJ)
system.mem_ctrls.dram.rank0.preBackEnergy  68130834720                       # Energy for precharge background per rank (pJ)
system.mem_ctrls.dram.rank0.actPowerDownEnergy            0                       # Energy for active power-down per rank (pJ)
system.mem_ctrls.dram.rank0.prePowerDownEnergy            0                       # Energy for precharge power-down per rank (pJ)
system.mem_ctrls.dram.rank0.selfRefreshEnergy            0                       # Energy for self refresh per rank (pJ)
system.mem_ctrls.dram.rank0.totalEnergy   90501628005                       # Total energy per rank (pJ)
system.mem_ctrls.dram.rank0.averagePower   469.388790                       # Core power per rank (mW)
system.mem_ctrls.dram.rank0.totalIdleTime            0                       # Total Idle time Per DRAM Rank
system.mem_ctrls.dram.rank0.pwrStateTime::IDLE 177056914000                       # Time in different power states
system.mem_ctrls.dram.rank0.pwrStateTime::REF   6438120000                       # Time in different power states
system.mem_ctrls.dram.rank0.pwrStateTime::SREF            0                       # Time in different power states
system.mem_ctrls.dram.rank0.pwrStateTime::PRE_PDN            0                       # Time in different power states
system.mem_ctrls.dram.rank0.pwrStateTime::ACT   9312357000                       # Time in different power states
system.mem_ctrls.dram.rank0.pwrStateTime::ACT_PDN            0                       # Time in different power states
system.mem_ctrls.dram.rank1.actEnergy        18742500                       # Energy for activate commands per rank (pJ)
system.mem_ctrls.dram.rank1.preEnergy         9961875                       # Energy for precharge commands per rank (pJ)
system.mem_ctrls.dram.rank1.readEnergy       60004560                       # Energy for read commands per rank (pJ)
system.mem_ctrls.dram.rank1.writeEnergy      13394520                       # Energy for write commands per rank (pJ)
system.mem_ctrls.dram.rank1.refreshEnergy 15219715680.000002                       # Energy for refresh commands per rank (pJ)
system.mem_ctrls.dram.rank1.actBackEnergy   6407274240                       # Energy for active background per rank (pJ)
system.mem_ctrls.dram.rank1.preBackEnergy  68642438880                       # Energy for precharge background per rank (pJ)
system.mem_ctrls.dram.rank1.actPowerDownEnergy            0                       # Energy for active power-down per rank (pJ)
system.mem_ctrls.dram.rank1.prePowerDownEnergy            0                       # Energy for precharge power-down per rank (pJ)
system.mem_ctrls.dram.rank1.selfRefreshEnergy            0                       # Energy for self refresh per rank (pJ)
system.mem_ctrls.dram.rank1.totalEnergy   90371532255                       # Total energy per rank (pJ)
system.mem_ctrls.dram.rank1.averagePower   468.714046                       # Core power per rank (mW)
system.mem_ctrls.dram.rank1.totalIdleTime            0                       # Total Idle time Per DRAM Rank
system.mem_ctrls.dram.rank1.pwrStateTime::IDLE 178394104250                       # Time in different power states
system.mem_ctrls.dram.rank1.pwrStateTime::REF   6438120000                       # Time in different power states
system.mem_ctrls.dram.rank1.pwrStateTime::SREF            0                       # Time in different power states
system.mem_ctrls.dram.rank1.pwrStateTime::PRE_PDN            0                       # Time in different power states
system.mem_ctrls.dram.rank1.pwrStateTime::ACT   7975166750                       # Time in different power states
system.mem_ctrls.dram.rank1.pwrStateTime::ACT_PDN            0                       # Time in different power states
system.mem_ctrls.power_state.pwrStateResidencyTicks::UNDEFINED 192807391000                       # Cumulative time (in ticks) in various power states
system.membus.trans_dist::ReadResp               5306                       # Transaction distribution
system.membus.trans_dist::WritebackDirty         9405                       # Transaction distribution
system.membus.trans_dist::CleanEvict             2337                       # Transaction distribution
system.membus.trans_dist::ReadExReq             14431                       # Transaction distribution
system.membus.trans_dist::ReadExResp            14431                       # Transaction distribution
system.membus.trans_dist::ReadSharedReq          5306                       # Transaction distribution
system.membus.pkt_count_system.l2.mem_side_port::system.mem_ctrls.port        51216                       # Packet count per connected requestor and responder (bytes)
system.membus.pkt_count_system.l2.mem_side_port::total        51216                       # Packet count per connected requestor and responder (bytes)
system.membus.pkt_count::total                  51216                       # Packet count per connected requestor and responder (bytes)
system.membus.pkt_size_system.l2.mem_side_port::system.mem_ctrls.port       932544                       # Cumulative packet size per connected requestor and responder (bytes)
system.membus.pkt_size_system.l2.mem_side_port::total       932544                       # Cumulative packet size per connected requestor and responder (bytes)
system.membus.pkt_size::total                  932544                       # Cumulative packet size per connected requestor and responder (bytes)
system.membus.snoops                                0                       # Total snoops (count)
system.membus.snoopTraffic                          0                       # Total snoop traffic (bytes)
system.membus.snoop_fanout::samples             19737                       # Request fanout histogram
system.membus.snoop_fanout::mean                    0                       # Request fanout histogram
system.membus.snoop_fanout::stdev                   0                       # Request fanout histogram
system.membus.snoop_fanout::underflows              0      0.00%      0.00% # Request fanout histogram
system.membus.snoop_fanout::0                   19737    100.00%    100.00% # Request fanout histogram
system.membus.snoop_fanout::1                       0      0.00%    100.00% # Request fanout histogram
system.membus.snoop_fanout::overflows               0      0.00%    100.00% # Request fanout histogram
system.membus.snoop_fanout::min_value               0                       # Request fanout histogram
system.membus.snoop_fanout::max_value               0                       # Request fanout histogram
system.membus.snoop_fanout::total               19737                       # Request fanout histogram
system.membus.power_state.pwrStateResidencyTicks::UNDEFINED 192807391000                       # Cumulative time (in ticks) in various power states
system.membus.reqLayer2.occupancy            50590500                       # Layer occupancy (ticks)
system.membus.reqLayer2.utilization               0.0                       # Layer utilization (%)
system.membus.respLayer1.occupancy           65404750                       # Layer occupancy (ticks)
system.membus.respLayer1.utilization              0.0                       # Layer utilization (%)
system.tol2bus.trans_dist::ReadResp             18436                       # Transaction distribution
system.tol2bus.trans_dist::WritebackDirty        66937                       # Transaction distribution
system.tol2bus.trans_dist::WritebackClean          331                       # Transaction distribution
system.tol2bus.trans_dist::CleanEvict           23975                       # Transaction distribution
system.tol2bus.trans_dist::ReadExReq            48652                       # Transaction distribution
system.tol2bus.trans_dist::ReadExResp           48652                       # Transaction distribution
system.tol2bus.trans_dist::ReadCleanReq          2514                       # Transaction distribution
system.tol2bus.trans_dist::ReadSharedReq        15922                       # Transaction distribution
system.tol2bus.pkt_count_system.cpu.icache.mem_side_port::system.l2.cpu_side_port         5359                       # Packet count per connected requestor and responder (bytes)
system.tol2bus.pkt_count_system.cpu.dcache.mem_side_port::system.l2.cpu_side_port       189626                       # Packet count per connected requestor and responder (bytes)
system.tol2bus.pkt_count::total                194985                       # Packet count per connected requestor and responder (bytes)
system.tol2bus.pkt_size_system.cpu.icache.mem_side_port::system.l2.cpu_side_port        91040                       # Cumulative packet size per connected requestor and responder (bytes)
system.tol2bus.pkt_size_system.cpu.dcache.mem_side_port::system.l2.cpu_side_port      3907392                       # Cumulative packet size per connected requestor and responder (bytes)
system.tol2bus.pkt_size::total                3998432                       # Cumulative packet size per connected requestor and responder (bytes)
system.tol2bus.snoops                           30434                       # Total snoops (count)
system.tol2bus.snoopTraffic                    300960                       # Total snoop traffic (bytes)
system.tol2bus.snoop_fanout::samples            97522                       # Request fanout histogram
system.tol2bus.snoop_fanout::mean            0.204405                       # Request fanout histogram
system.tol2bus.snoop_fanout::stdev           0.403268                       # Request fanout histogram
system.tol2bus.snoop_fanout::underflows             0      0.00%      0.00% # Request fanout histogram
system.tol2bus.snoop_fanout::0                  77588     79.56%     79.56% # Request fanout histogram
system.tol2bus.snoop_fanout::1                  19934     20.44%    100.00% # Request fanout histogram
system.tol2bus.snoop_fanout::2                      0      0.00%    100.00% # Request fanout histogram
system.tol2bus.snoop_fanout::3                      0      0.00%    100.00% # Request fanout histogram
system.tol2bus.snoop_fanout::4                      0      0.00%    100.00% # Request fanout histogram
system.tol2bus.snoop_fanout::overflows              0      0.00%    100.00% # Request fanout histogram
system.tol2bus.snoop_fanout::min_value              0                       # Request fanout histogram
system.tol2bus.snoop_fanout::max_value              1                       # Request fanout histogram
system.tol2bus.snoop_fanout::total              97522                       # Request fanout histogram
system.tol2bus.power_state.pwrStateResidencyTicks::UNDEFINED 192807391000                       # Cumulative time (in ticks) in various power states
system.tol2bus.reqLayer0.occupancy           92880000                       # Layer occupancy (ticks)
system.tol2bus.reqLayer0.utilization              0.0                       # Layer utilization (%)
system.tol2bus.respLayer0.occupancy           2514000                       # Layer occupancy (ticks)
system.tol2bus.respLayer0.utilization             0.0                       # Layer utilization (%)
system.tol2bus.respLayer1.occupancy          64574000                       # Layer occupancy (ticks)
system.tol2bus.respLayer1.utilization             0.0                       # Layer utilization (%)
system.voltage_domain.voltage                       1                       # Voltage in Volts

---------- End Simulation Statistics   ----------
