
---------- Begin Simulation Statistics ----------
final_tick                               192812947500                       # Number of ticks from beginning of simulation (restored from checkpoints and never reset)
host_inst_rate                                 862159                       # Simulator instruction rate (inst/s)
host_mem_usage                                 671564                       # Number of bytes of host memory used
host_op_rate                                  1115231                       # Simulator op (including micro ops) rate (op/s)
host_seconds                                   115.99                       # Real time elapsed on the host
host_tick_rate                             1662351058                       # Simulator tick rate (ticks/s)
sim_freq                                 1000000000000                       # Frequency of simulated ticks
sim_insts                                   100000000                       # Number of instructions simulated
sim_ops                                     129353490                       # Number of ops (including micro ops) simulated
sim_seconds                                  0.192813                       # Number of seconds simulated
sim_ticks                                192812947500                       # Number of ticks simulated
system.cpu.Branches                           5555718                       # Number of branches fetched
system.cpu.committedInsts                   100000000                       # Number of instructions committed
system.cpu.committedOps                     129353490                       # Number of ops (including micro ops) committed
system.cpu.idle_fraction                            0                       # Percentage of idle cycles
system.cpu.not_idle_fraction                        1                       # Percentage of non-idle cycles
system.cpu.numCycles                        385625895                       # number of cpu cycles simulated
system.cpu.numWorkItemsCompleted                    0                       # number of work items this cpu completed
system.cpu.numWorkItemsStarted                      0                       # number of work items this cpu started
system.cpu.num_busy_cycles                  385625895                       # Number of busy cycles
system.cpu.num_cc_register_reads             37536336                       # number of times the CC registers were read
system.cpu.num_cc_register_writes            52077182                       # number of times the CC registers were written
system.cpu.num_conditional_control_insts      5078798                       # number of instructions that are conditional controls
system.cpu.num_fp_alu_accesses                5734498                       # Number of float alu accesses
system.cpu.num_fp_insts                       5734498                       # number of float instructions
system.cpu.num_fp_register_reads              4648737                       # number of times the floating registers were read
system.cpu.num_fp_register_writes             4867956                       # number of times the floating registers were written
system.cpu.num_func_calls                      317051                       # number of times a function call or return occured
system.cpu.num_idle_cycles                          0                       # Number of idle cycles
system.cpu.num_int_alu_accesses             125241022                       # Number of integer alu accesses
system.cpu.num_int_insts                    125241022                       # number of integer instructions
system.cpu.num_int_register_reads           293410038                       # number of times the integer registers were read
system.cpu.num_int_register_writes          113873586                       # number of times the integer registers were written
system.cpu.num_load_insts                    43555354                       # Number of load instructions
system.cpu.num_mem_refs                      50714744                       # number of memory refs
system.cpu.num_store_insts                    7159390                       # Number of store instructions
system.cpu.num_vec_alu_accesses                     0                       # Number of vector alu accesses
system.cpu.num_vec_insts                            0                       # number of vector instructions
system.cpu.num_vec_register_reads                   0                       # number of times the vector registers were read
system.cpu.num_vec_register_writes                  0                       # number of times the vector registers were written
system.cpu.op_class::No_OpClass                550507      0.43%      0.43% # Class of executed instruction
system.cpu.op_class::IntAlu                  73097378     56.50%     56.92% # Class of executed instruction
system.cpu.op_class::IntMult                   132844      0.10%     57.02% # Class of executed instruction
system.cpu.op_class::IntDiv                   1253858      0.97%     57.99% # Class of executed instruction
system.cpu.op_class::FloatAdd                 1903691      1.47%     59.46% # Class of executed instruction
system.cpu.op_class::FloatCmp                       0      0.00%     59.46% # Class of executed instruction
system.cpu.op_class::FloatCvt                       0      0.00%     59.46% # Class of executed instruction
system.cpu.op_class::FloatMult                      0      0.00%     59.46% # Class of executed instruction
system.cpu.op_class::FloatMultAcc                   0      0.00%     59.46% # Class of executed instruction
system.cpu.op_class::FloatDiv                       0      0.00%     59.46% # Class of executed instruction
system.cpu.op_class::FloatMisc                      0      0.00%     59.46% # Class of executed instruction
system.cpu.op_class::FloatSqrt                      0      0.00%     59.46% # Class of executed instruction
system.cpu.op_class::SimdAdd                      494      0.00%     59.47% # Class of executed instruction
system.cpu.op_class::SimdAddAcc                     0      0.00%     59.47% # Class of executed instruction
system.cpu.op_class::SimdAlu                   218994      0.17%     59.63% # Class of executed instruction
system.cpu.op_class::SimdCmp                      180      0.00%     59.63% # Class of executed instruction
system.cpu.op_class::SimdCvt                   180632      0.14%     59.77% # Class of executed instruction
system.cpu.op_class::SimdMisc                  402789      0.31%     60.09% # Class of executed instruction
system.cpu.op_class::SimdMult                       0      0.00%     60.09% # Class of executed instruction
system.cpu.op_class::SimdMultAcc                    0      0.00%     60.09% # Class of executed instruction
system.cpu.op_class::SimdShift                     34      0.00%     60.09% # Class of executed instruction
system.cpu.op_class::SimdShiftAcc                   0      0.00%     60.09% # Class of executed instruction
system.cpu.op_class::SimdDiv                        0      0.00%     60.09% # Class of executed instruction
system.cpu.op_class::SimdSqrt                       0      0.00%     60.09% # Class of executed instruction
system.cpu.op_class::SimdFloatAdd              322927      0.25%     60.34% # Class of executed instruction
system.cpu.op_class::SimdFloatAlu                   0      0.00%     60.34% # Class of executed instruction
system.cpu.op_class::SimdFloatCmp                   0      0.00%     60.34% # Class of executed instruction
system.cpu.op_class::SimdFloatCvt              493438      0.38%     60.72% # Class of executed instruction
system.cpu.op_class::SimdFloatDiv               62796      0.05%     60.77% # Class of executed instruction
system.cpu.op_class::SimdFloatMisc                  0      0.00%     60.77% # Class of executed instruction
system.cpu.op_class::SimdFloatMult              49007      0.04%     60.80% # Class of executed instruction
system.cpu.op_class::SimdFloatMultAcc               0      0.00%     60.80% # Class of executed instruction
system.cpu.op_class::SimdFloatSqrt                  0      0.00%     60.80% # Class of executed instruction
system.cpu.op_class::SimdReduceAdd                  0      0.00%     60.80% # Class of executed instruction
system.cpu.op_class::SimdReduceAlu                  0      0.00%     60.80% # Class of executed instruction
system.cpu.op_class::SimdReduceCmp                  0      0.00%     60.80% # Class of executed instruction
system.cpu.op_class::SimdFloatReduceAdd             0      0.00%     60.80% # Class of executed instruction
system.cpu.op_class::SimdFloatReduceCmp             0      0.00%     60.80% # Class of executed instruction
system.cpu.op_class::SimdAes                        0      0.00%     60.80% # Class of executed instruction
system.cpu.op_class::SimdAesMix                     0      0.00%     60.80% # Class of executed instruction
system.cpu.op_class::SimdSha1Hash                   0      0.00%     60.80% # Class of executed instruction
system.cpu.op_class::SimdSha1Hash2                  0      0.00%     60.80% # Class of executed instruction
system.cpu.op_class::SimdSha256Hash                 0      0.00%     60.80% # Class of executed instruction
system.cpu.op_class::SimdSha256Hash2                0      0.00%     60.80% # Class of executed instruction
system.cpu.op_class::SimdShaSigma2                  0      0.00%     60.80% # Class of executed instruction
system.cpu.op_class::SimdShaSigma3                  0      0.00%     60.80% # Class of executed instruction
system.cpu.op_class::SimdPredAlu                    0      0.00%     60.80% # Class of executed instruction
system.cpu.op_class::MemRead                 42068750     32.51%     93.32% # Class of executed instruction
system.cpu.op_class::MemWrite                 6726912      5.20%     98.52% # Class of executed instruction
system.cpu.op_class::FloatMemRead             1486604      1.15%     99.67% # Class of executed instruction
system.cpu.op_class::FloatMemWrite             432478      0.33%    100.00% # Class of executed instruction
system.cpu.op_class::IprAccess                      0      0.00%    100.00% # Class of executed instruction
system.cpu.op_class::InstPrefetch                   0      0.00%    100.00% # Class of executed instruction
system.cpu.op_class::total                  129384313                       # Class of executed instruction
system.cpu.workload.numSyscalls                    35                       # Number of system calls
system.membus.snoop_filter.hit_multi_requests            0                       # Number of requests hitting in the snoop filter with multiple (>1) holders of the requested data.
system.membus.snoop_filter.hit_multi_snoops            0                       # Number of snoops hitting in the snoop filter with multiple (>1) holders of the requested data.
system.membus.snoop_filter.hit_single_requests        11752                       # Number of requests hitting in the snoop filter with a single holder of the requested data.
system.membus.snoop_filter.hit_single_snoops            0                       # Number of snoops hitting in the snoop filter with a single holder of the requested data.
system.membus.snoop_filter.tot_requests         31486                       # Total number of requests made to the snoop filter.
system.membus.snoop_filter.tot_snoops               0                       # Total number of snoops made to the snoop filter.
system.tol2bus.snoop_filter.hit_multi_requests            0                       # Number of requests hitting in the snoop filter with multiple (>1) holders of the requested data.
system.tol2bus.snoop_filter.hit_multi_snoops            0                       # Number of snoops hitting in the snoop filter with multiple (>1) holders of the requested data.
system.tol2bus.snoop_filter.hit_single_requests        60809                       # Number of requests hitting in the snoop filter with a single holder of the requested data.
system.tol2bus.snoop_filter.hit_single_snoops        20123                       # Number of snoops hitting in the snoop filter with a single holder of the requested data.
system.tol2bus.snoop_filter.tot_requests       127897                       # Total number of requests made to the snoop filter.
system.tol2bus.snoop_filter.tot_snoops          20123                       # Total number of snoops made to the snoop filter.
system.clk_domain.clock                          1000                       # Clock period in ticks
system.cpu.dcache.demand_hits::.cpu.data     50911213                       # number of demand (read+write) hits
system.cpu.dcache.demand_hits::total         50911213                       # number of demand (read+write) hits
system.cpu.dcache.overall_hits::.cpu.data     50923385                       # number of overall hits
system.cpu.dcache.overall_hits::total        50923385                       # number of overall hits
system.cpu.dcache.demand_misses::.cpu.data        61446                       # number of demand (read+write) misses
system.cpu.dcache.demand_misses::total          61446                       # number of demand (read+write) misses
system.cpu.dcache.overall_misses::.cpu.data        64628                       # number of overall misses
system.cpu.dcache.overall_misses::total         64628                       # number of overall misses
system.cpu.dcache.demand_miss_latency::.cpu.data   1929262500                       # number of demand (read+write) miss cycles
system.cpu.dcache.demand_miss_latency::total   1929262500                       # number of demand (read+write) miss cycles
system.cpu.dcache.overall_miss_latency::.cpu.data   1929262500                       # number of overall miss cycles
system.cpu.dcache.overall_miss_latency::total   1929262500                       # number of overall miss cycles
system.cpu.dcache.demand_accesses::.cpu.data     50972659                       # number of demand (read+write) accesses
system.cpu.dcache.demand_accesses::total     50972659                       # number of demand (read+write) accesses
system.cpu.dcache.overall_accesses::.cpu.data     50988013                       # number of overall (read+write) accesses
system.cpu.dcache.overall_accesses::total     50988013                       # number of overall (read+write) accesses
system.cpu.dcache.demand_miss_rate::.cpu.data     0.001205                       # miss rate for demand accesses
system.cpu.dcache.demand_miss_rate::total     0.001205                       # miss rate for demand accesses
system.cpu.dcache.overall_miss_rate::.cpu.data     0.001268                       # miss rate for overall accesses
system.cpu.dcache.overall_miss_rate::total     0.001268                       # miss rate for overall accesses
system.cpu.dcache.demand_avg_miss_latency::.cpu.data 31397.690655                       # average overall miss latency
system.cpu.dcache.demand_avg_miss_latency::total 31397.690655                       # average overall miss latency
system.cpu.dcache.overall_avg_miss_latency::.cpu.data 29851.805719                       # average overall miss latency
system.cpu.dcache.overall_avg_miss_latency::total 29851.805719                       # average overall miss latency
system.cpu.dcache.blocked_cycles::no_mshrs           12                       # number of cycles access was blocked
system.cpu.dcache.blocked_cycles::no_targets            0                       # number of cycles access was blocked
system.cpu.dcache.blocked::no_mshrs                 1                       # number of cycles access was blocked
system.cpu.dcache.blocked::no_targets               0                       # number of cycles access was blocked
system.cpu.dcache.avg_blocked_cycles::no_mshrs           12                       # average number of cycles each access was blocked
system.cpu.dcache.avg_blocked_cycles::no_targets          nan                       # average number of cycles each access was blocked
system.cpu.dcache.writebacks::.writebacks        57563                       # number of writebacks
system.cpu.dcache.writebacks::total             57563                       # number of writebacks
system.cpu.dcache.demand_mshr_misses::.cpu.data        61446                       # number of demand (read+write) MSHR misses
system.cpu.dcache.demand_mshr_misses::total        61446                       # number of demand (read+write) MSHR misses
system.cpu.dcache.overall_mshr_misses::.cpu.data        64574                       # number of overall MSHR misses
system.cpu.dcache.overall_mshr_misses::total        64574                       # number of overall MSHR misses
system.cpu.dcache.demand_mshr_miss_latency::.cpu.data   1867816500                       # number of demand (read+write) MSHR miss cycles
system.cpu.dcache.demand_mshr_miss_latency::total   1867816500                       # number of demand (read+write) MSHR miss cycles
system.cpu.dcache.overall_mshr_miss_latency::.cpu.data   1956231500                       # number of overall MSHR miss cycles
system.cpu.dcache.overall_mshr_miss_latency::total   1956231500                       # number of overall MSHR miss cycles
system.cpu.dcache.demand_mshr_miss_rate::.cpu.data     0.001205                       # mshr miss rate for demand accesses
system.cpu.dcache.demand_mshr_miss_rate::total     0.001205                       # mshr miss rate for demand accesses
system.cpu.dcache.overall_mshr_miss_rate::.cpu.data     0.001266                       # mshr miss rate for overall accesses
system.cpu.dcache.overall_mshr_miss_rate::total     0.001266                       # mshr miss rate for overall accesses
system.cpu.dcache.demand_avg_mshr_miss_latency::.cpu.data 30397.690655                       # average overall mshr miss latency
system.cpu.dcache.demand_avg_mshr_miss_latency::total 30397.690655                       # average overall mshr miss latency
system.cpu.dcache.overall_avg_mshr_miss_latency::.cpu.data 30294.414160                       # average overall mshr miss latency
system.cpu.dcache.overall_avg_mshr_miss_latency::total 30294.414160                       # average overall mshr miss latency
system.cpu.dcache.replacements                  60478                       # number of replacements
system.cpu.dcache.ReadReq_hits::.cpu.data     43831187                       # number of ReadReq hits
system.cpu.dcache.ReadReq_hits::total        43831187                       # number of ReadReq hits
system.cpu.dcache.ReadReq_misses::.cpu.data        12794                       # number of ReadReq misses
system.cpu.dcache.ReadReq_misses::total         12794                       # number of ReadReq misses
system.cpu.dcache.ReadReq_miss_latency::.cpu.data    306353500                       # number of ReadReq miss cycles
system.cpu.dcache.ReadReq_miss_latency::total    306353500                       # number of ReadReq miss cycles
system.cpu.dcache.ReadReq_accesses::.cpu.data     43843981                       # number of ReadReq accesses(hits+misses)
system.cpu.dcache.ReadReq_accesses::total     43843981                       # number of ReadReq accesses(hits+misses)
system.cpu.dcache.ReadReq_miss_rate::.cpu.data     0.000292                       # miss rate for ReadReq accesses
system.cpu.dcache.ReadReq_miss_rate::total     0.000292                       # miss rate for ReadReq accesses
system.cpu.dcache.ReadReq_avg_miss_latency::.cpu.data 23945.091449                       # average ReadReq miss latency
system.cpu.dcache.ReadReq_avg_miss_latency::total 23945.091449                       # average ReadReq miss latency
system.cpu.dcache.ReadReq_mshr_misses::.cpu.data        12794                       # number of ReadReq MSHR misses
system.cpu.dcache.ReadReq_mshr_misses::total        12794                       # number of ReadReq MSHR misses
system.cpu.dcache.ReadReq_mshr_miss_latency::.cpu.data    293559500                       # number of ReadReq MSHR miss cycles
system.cpu.dcache.ReadReq_mshr_miss_latency::total    293559500                       # number of ReadReq MSHR miss cycles
system.cpu.dcache.ReadReq_mshr_miss_rate::.cpu.data     0.000292                       # mshr miss rate for ReadReq accesses
system.cpu.dcache.ReadReq_mshr_miss_rate::total     0.000292                       # mshr miss rate for ReadReq accesses
system.cpu.dcache.ReadReq_avg_mshr_miss_latency::.cpu.data 22945.091449                       # average ReadReq mshr miss latency
system.cpu.dcache.ReadReq_avg_mshr_miss_latency::total 22945.091449                       # average ReadReq mshr miss latency
system.cpu.dcache.WriteReq_hits::.cpu.data      7080026                       # number of WriteReq hits
system.cpu.dcache.WriteReq_hits::total        7080026                       # number of WriteReq hits
system.cpu.dcache.WriteReq_misses::.cpu.data        48652                       # number of WriteReq misses
system.cpu.dcache.WriteReq_misses::total        48652                       # number of WriteReq misses
system.cpu.dcache.WriteReq_miss_latency::.cpu.data   1622909000                       # number of WriteReq miss cycles
system.cpu.dcache.WriteReq_miss_latency::total   1622909000                       # number of WriteReq miss cycles
system.cpu.dcache.WriteReq_accesses::.cpu.data      7128678                       # number of WriteReq accesses(hits+misses)
system.cpu.dcache.WriteReq_accesses::total      7128678                       # number of WriteReq accesses(hits+misses)
system.cpu.dcache.WriteReq_miss_rate::.cpu.data     0.006825                       # miss rate for WriteReq accesses
system.cpu.dcache.WriteReq_miss_rate::total     0.006825                       # miss rate for WriteReq accesses
system.cpu.dcache.WriteReq_avg_miss_latency::.cpu.data 33357.498150                       # average WriteReq miss latency
system.cpu.dcache.WriteReq_avg_miss_latency::total 33357.498150                       # average WriteReq miss latency
system.cpu.dcache.WriteReq_mshr_misses::.cpu.data        48652                       # number of WriteReq MSHR misses
system.cpu.dcache.WriteReq_mshr_misses::total        48652                       # number of WriteReq MSHR misses
system.cpu.dcache.WriteReq_mshr_miss_latency::.cpu.data   1574257000                       # number of WriteReq MSHR miss cycles
system.cpu.dcache.WriteReq_mshr_miss_latency::total   1574257000                       # number of WriteReq MSHR miss cycles
system.cpu.dcache.WriteReq_mshr_miss_rate::.cpu.data     0.006825                       # mshr miss rate for WriteReq accesses
system.cpu.dcache.WriteReq_mshr_miss_rate::total     0.006825                       # mshr miss rate for WriteReq accesses
system.cpu.dcache.WriteReq_avg_mshr_miss_latency::.cpu.data 32357.498150                       # average WriteReq mshr miss latency
system.cpu.dcache.WriteReq_avg_mshr_miss_latency::total 32357.498150                       # average WriteReq mshr miss latency
system.cpu.dcache.SoftPFReq_hits::.cpu.data        12172                       # number of SoftPFReq hits
system.cpu.dcache.SoftPFReq_hits::total         12172                       # number of SoftPFReq hits
system.cpu.dcache.SoftPFReq_misses::.cpu.data         3182                       # number of SoftPFReq misses
system.cpu.dcache.SoftPFReq_misses::total         3182                       # number of SoftPFReq misses
system.cpu.dcache.SoftPFReq_accesses::.cpu.data        15354                       # number of SoftPFReq accesses(hits+misses)
system.cpu.dcache.SoftPFReq_accesses::total        15354                       # number of SoftPFReq accesses(hits+misses)
system.cpu.dcache.SoftPFReq_miss_rate::.cpu.data     0.207242                       # miss rate for SoftPFReq accesses
system.cpu.dcache.SoftPFReq_miss_rate::total     0.207242                       # miss rate for SoftPFReq accesses
system.cpu.dcache.SoftPFReq_mshr_misses::.cpu.data         3128                       # number of SoftPFReq MSHR misses
system.cpu.dcache.SoftPFReq_mshr_misses::total         3128                       # number of SoftPFReq MSHR misses
system.cpu.dcache.SoftPFReq_mshr_miss_latency::.cpu.data     88415000                       # number of SoftPFReq MSHR miss cycles
system.cpu.dcache.SoftPFReq_mshr_miss_latency::total     88415000                       # number of SoftPFReq MSHR miss cycles
system.cpu.dcache.SoftPFReq_mshr_miss_rate::.cpu.data     0.203725                       # mshr miss rate for SoftPFReq accesses
system.cpu.dcache.SoftPFReq_mshr_miss_rate::total     0.203725                       # mshr miss rate for SoftPFReq accesses
system.cpu.dcache.SoftPFReq_avg_mshr_miss_latency::.cpu.data 28265.664962                       # average SoftPFReq mshr miss latency
system.cpu.dcache.SoftPFReq_avg_mshr_miss_latency::total 28265.664962                       # average SoftPFReq mshr miss latency
system.cpu.dcache.power_state.pwrStateResidencyTicks::UNDEFINED 192812947500                       # Cumulative time (in ticks) in various power states
system.cpu.dcache.tags.tagsinuse          4042.934201                       # Cycle average of tags in use
system.cpu.dcache.tags.total_refs            50987959                       # Total number of references to valid blocks.
system.cpu.dcache.tags.sampled_refs             64574                       # Sample count of references to valid blocks.
system.cpu.dcache.tags.avg_refs            789.605089                       # Average number of references to valid blocks.
system.cpu.dcache.tags.warmup_cycle            177500                       # Cycle when the warmup percentage was hit.
system.cpu.dcache.tags.occ_blocks::.cpu.data  4042.934201                       # Average occupied blocks per requestor
system.cpu.dcache.tags.occ_percent::.cpu.data     0.987044                       # Average percentage of cache occupancy
system.cpu.dcache.tags.occ_percent::total     0.987044                       # Average percentage of cache occupancy
system.cpu.dcache.tags.occ_task_id_blocks::1024         4096                       # Occupied blocks per task id
system.cpu.dcache.tags.age_task_id_blocks_1024::1            1                       # Occupied blocks per task id
system.cpu.dcache.tags.age_task_id_blocks_1024::2           38                       # Occupied blocks per task id
system.cpu.dcache.tags.age_task_id_blocks_1024::3          676                       # Occupied blocks per task id
system.cpu.dcache.tags.age_task_id_blocks_1024::4         3381                       # Occupied blocks per task id
system.cpu.dcache.tags.occ_task_id_percent::1024            1                       # Percentage of cache occupancy per task id
system.cpu.dcache.tags.tag_accesses         102040600                       # Number of tag accesses
system.cpu.dcache.tags.data_accesses        102040600                       # Number of data accesses
system.cpu.dcache.tags.power_state.pwrStateResidencyTicks::UNDEFINED 192812947500                       # Cumulative time (in ticks) in various power states
system.cpu.dtb.rdAccesses                    43859336                       # TLB accesses on read requests
system.cpu.dtb.wrAccesses                     7159465                       # TLB accesses on write requests
system.cpu.dtb.rdMisses                           114                       # TLB misses on read requests
system.cpu.dtb.wrMisses                           271                       # TLB misses on write requests
system.cpu.dtb.walker.power_state.pwrStateResidencyTicks::UNDEFINED 192812947500                       # Cumulative time (in ticks) in various power states
system.cpu.dtb_walker_cache.blocked_cycles::no_mshrs            0                       # number of cycles access was blocked
system.cpu.dtb_walker_cache.blocked_cycles::no_targets            0                       # number of cycles access was blocked
system.cpu.dtb_walker_cache.blocked::no_mshrs            0                       # number of cycles access was blocked
system.cpu.dtb_walker_cache.blocked::no_targets            0                       # number of cycles access was blocked
system.cpu.dtb_walker_cache.avg_blocked_cycles::no_mshrs          nan                       # average number of cycles each access was blocked
system.cpu.dtb_walker_cache.avg_blocked_cycles::no_targets          nan                       # average number of cycles each access was blocked
system.cpu.dtb_walker_cache.replacements            0                       # number of replacements
system.cpu.dtb_walker_cache.power_state.pwrStateResidencyTicks::UNDEFINED 192812947500                       # Cumulative time (in ticks) in various power states
system.cpu.dtb_walker_cache.tags.tagsinuse            0                       # Cycle average of tags in use
system.cpu.dtb_walker_cache.tags.total_refs            0                       # Total number of references to valid blocks.
system.cpu.dtb_walker_cache.tags.sampled_refs            0                       # Sample count of references to valid blocks.
system.cpu.dtb_walker_cache.tags.avg_refs          nan                       # Average number of references to valid blocks.
system.cpu.dtb_walker_cache.tags.warmup_cycle            0                       # Cycle when the warmup percentage was hit.
system.cpu.dtb_walker_cache.tags.tag_accesses            0                       # Number of tag accesses
system.cpu.dtb_walker_cache.tags.data_accesses            0                       # Number of data accesses
system.cpu.dtb_walker_cache.tags.power_state.pwrStateResidencyTicks::UNDEFINED 192812947500                       # Cumulative time (in ticks) in various power states
system.cpu.icache.demand_hits::.cpu.inst    139916546                       # number of demand (read+write) hits
system.cpu.icache.demand_hits::total        139916546                       # number of demand (read+write) hits
system.cpu.icache.overall_hits::.cpu.inst    139916546                       # number of overall hits
system.cpu.icache.overall_hits::total       139916546                       # number of overall hits
system.cpu.icache.demand_misses::.cpu.inst         2514                       # number of demand (read+write) misses
system.cpu.icache.demand_misses::total           2514                       # number of demand (read+write) misses
system.cpu.icache.overall_misses::.cpu.inst         2514                       # number of overall misses
system.cpu.icache.overall_misses::total          2514                       # number of overall misses
system.cpu.icache.demand_miss_latency::.cpu.inst    192614500                       # number of demand (read+write) miss cycles
system.cpu.icache.demand_miss_latency::total    192614500                       # number of demand (read+write) miss cycles
system.cpu.icache.overall_miss_latency::.cpu.inst    192614500                       # number of overall miss cycles
system.cpu.icache.overall_miss_latency::total    192614500                       # number of overall miss cycles
system.cpu.icache.demand_accesses::.cpu.inst    139919060                       # number of demand (read+write) accesses
system.cpu.icache.demand_accesses::total    139919060                       # number of demand (read+write) accesses
system.cpu.icache.overall_accesses::.cpu.inst    139919060                       # number of overall (read+write) accesses
system.cpu.icache.overall_accesses::total    139919060                       # number of overall (read+write) accesses
system.cpu.icache.demand_miss_rate::.cpu.inst     0.000018                       # miss rate for demand accesses
system.cpu.icache.demand_miss_rate::total     0.000018                       # miss rate for demand accesses
system.cpu.icache.overall_miss_rate::.cpu.inst     0.000018                       # miss rate for overall accesses
system.cpu.icache.overall_miss_rate::total     0.000018                       # miss rate for overall accesses
system.cpu.icache.demand_avg_miss_latency::.cpu.inst 76616.746221                       # average overall miss latency
system.cpu.icache.demand_avg_miss_latency::total 76616.746221                       # average overall miss latency
system.cpu.icache.overall_avg_miss_latency::.cpu.inst 76616.746221                       # average overall miss latency
system.cpu.icache.overall_avg_miss_latency::total 76616.746221                       # average overall miss latency
system.cpu.icache.blocked_cycles::no_mshrs            0                       # number of cycles access was blocked
system.cpu.icache.blocked_cycles::no_targets            0                       # number of cycles access was blocked
system.cpu.icache.blocked::no_mshrs                 0                       # number of cycles access was blocked
system.cpu.icache.blocked::no_targets               0                       # number of cycles access was blocked
system.cpu.icache.avg_blocked_cycles::no_mshrs          nan                       # average number of cycles each access was blocked
system.cpu.icache.avg_blocked_cycles::no_targets          nan                       # average number of cycles each access was blocked
system.cpu.icache.writebacks::.writebacks          331                       # number of writebacks
system.cpu.icache.writebacks::total               331                       # number of writebacks
system.cpu.icache.demand_mshr_misses::.cpu.inst         2514                       # number of demand (read+write) MSHR misses
system.cpu.icache.demand_mshr_misses::total         2514                       # number of demand (read+write) MSHR misses
system.cpu.icache.overall_mshr_misses::.cpu.inst         2514                       # number of overall MSHR misses
system.cpu.icache.overall_mshr_misses::total         2514                       # number of overall MSHR misses
system.cpu.icache.demand_mshr_miss_latency::.cpu.inst    190100500                       # number of demand (read+write) MSHR miss cycles
system.cpu.icache.demand_mshr_miss_latency::total    190100500                       # number of demand (read+write) MSHR miss cycles
system.cpu.icache.overall_mshr_miss_latency::.cpu.inst    190100500                       # number of overall MSHR miss cycles
system.cpu.icache.overall_mshr_miss_latency::total    190100500                       # number of overall MSHR miss cycles
system.cpu.icache.demand_mshr_miss_rate::.cpu.inst     0.000018                       # mshr miss rate for demand accesses
system.cpu.icache.demand_mshr_miss_rate::total     0.000018                       # mshr miss rate for demand accesses
system.cpu.icache.overall_mshr_miss_rate::.cpu.inst     0.000018                       # mshr miss rate for overall accesses
system.cpu.icache.overall_mshr_miss_rate::total     0.000018                       # mshr miss rate for overall accesses
system.cpu.icache.demand_avg_mshr_miss_latency::.cpu.inst 75616.746221                       # average overall mshr miss latency
system.cpu.icache.demand_avg_mshr_miss_latency::total 75616.746221                       # average overall mshr miss latency
system.cpu.icache.overall_avg_mshr_miss_latency::.cpu.inst 75616.746221                       # average overall mshr miss latency
system.cpu.icache.overall_avg_mshr_miss_latency::total 75616.746221                       # average overall mshr miss latency
system.cpu.icache.replacements                    331                       # number of replacements
system.cpu.icache.ReadReq_hits::.cpu.inst    139916546                       # number of ReadReq hits
system.cpu.icache.ReadReq_hits::total       139916546                       # number of ReadReq hits
system.cpu.icache.ReadReq_misses::.cpu.inst         2514                       # number of ReadReq misses
system.cpu.icache.ReadReq_misses::total          2514                       # number of ReadReq misses
system.cpu.icache.ReadReq_miss_latency::.cpu.inst    192614500                       # number of ReadReq miss cycles
system.cpu.icache.ReadReq_miss_latency::total    192614500                       # number of ReadReq miss cycles
system.cpu.icache.ReadReq_accesses::.cpu.inst    139919060                       # number of ReadReq accesses(hits+misses)
system.cpu.icache.ReadReq_accesses::total    139919060                       # number of ReadReq accesses(hits+misses)
system.cpu.icache.ReadReq_miss_rate::.cpu.inst     0.000018                       # miss rate for ReadReq accesses
system.cpu.icache.ReadReq_miss_rate::total     0.000018                       # miss rate for ReadReq accesses
system.cpu.icache.ReadReq_avg_miss_latency::.cpu.inst 76616.746221                       # average ReadReq miss latency
system.cpu.icache.ReadReq_avg_miss_latency::total 76616.746221                       # average ReadReq miss latency
system.cpu.icache.ReadReq_mshr_misses::.cpu.inst         2514                       # number of ReadReq MSHR misses
system.cpu.icache.ReadReq_mshr_misses::total         2514                       # number of ReadReq MSHR misses
system.cpu.icache.ReadReq_mshr_miss_latency::.cpu.inst    190100500                       # number of ReadReq MSHR miss cycles
system.cpu.icache.ReadReq_mshr_miss_latency::total    190100500                       # number of ReadReq MSHR miss cycles
system.cpu.icache.ReadReq_mshr_miss_rate::.cpu.inst     0.000018                       # mshr miss rate for ReadReq accesses
system.cpu.icache.ReadReq_mshr_miss_rate::total     0.000018                       # mshr miss rate for ReadReq accesses
system.cpu.icache.ReadReq_avg_mshr_miss_latency::.cpu.inst 75616.746221                       # average ReadReq mshr miss latency
system.cpu.icache.ReadReq_avg_mshr_miss_latency::total 75616.746221                       # average ReadReq mshr miss latency
system.cpu.icache.power_state.pwrStateResidencyTicks::UNDEFINED 192812947500                       # Cumulative time (in ticks) in various power states
system.cpu.icache.tags.tagsinuse          2164.091927                       # Cycle average of tags in use
system.cpu.icache.tags.total_refs           139919060                       # Total number of references to valid blocks.
system.cpu.icache.tags.sampled_refs              2514                       # Sample count of references to valid blocks.
system.cpu.icache.tags.avg_refs          55655.950676                       # Average number of references to valid blocks.
system.cpu.icache.tags.warmup_cycle             87500                       # Cycle when the warmup percentage was hit.
system.cpu.icache.tags.occ_blocks::.cpu.inst  2164.091927                       # Average occupied blocks per requestor
system.cpu.icache.tags.occ_percent::.cpu.inst     0.528343                       # Average percentage of cache occupancy
system.cpu.icache.tags.occ_percent::total     0.528343                       # Average percentage of cache occupancy
system.cpu.icache.tags.occ_task_id_blocks::1024         2183                       # Occupied blocks per task id
system.cpu.icache.tags.age_task_id_blocks_1024::4         2183                       # Occupied blocks per task id
system.cpu.icache.tags.occ_task_id_percent::1024     0.532959                       # Percentage of cache occupancy per task id
system.cpu.icache.tags.tag_accesses         279840634                       # Number of tag accesses
system.cpu.icache.tags.data_accesses        279840634                       # Number of data accesses
system.cpu.icache.tags.power_state.pwrStateResidencyTicks::UNDEFINED 192812947500                       # Cumulative time (in ticks) in various power states
system.cpu.interrupts.clk_domain.clock           8000                       # Clock period in ticks
system.cpu.itb.rdAccesses                           0                       # TLB accesses on read requests
system.cpu.itb.wrAccesses                   139919060                       # TLB accesses on write requests
system.cpu.itb.rdMisses                             0                       # TLB misses on read requests
system.cpu.itb.wrMisses                           106                       # TLB misses on write requests
system.cpu.itb.walker.power_state.pwrStateResidencyTicks::UNDEFINED 192812947500                       # Cumulative time (in ticks) in various power states
system.cpu.itb_walker_cache.blocked_cycles::no_mshrs            0                       # number of cycles access was blocked
system.cpu.itb_walker_cache.blocked_cycles::no_targets            0                       # number of cycles access was blocked
system.cpu.itb_walker_cache.blocked::no_mshrs            0                       # number of cycles access was blocked
system.cpu.itb_walker_cache.blocked::no_targets            0                       # number of cycles access was blocked
system.cpu.itb_walker_cache.avg_blocked_cycles::no_mshrs          nan                       # average number of cycles each access was blocked
system.cpu.itb_walker_cache.avg_blocked_cycles::no_targets          nan                       # average number of cycles each access was blocked
system.cpu.itb_walker_cache.replacements            0                       # number of replacements
system.cpu.itb_walker_cache.power_state.pwrStateResidencyTicks::UNDEFINED 192812947500                       # Cumulative time (in ticks) in various power states
system.cpu.itb_walker_cache.tags.tagsinuse            0                       # Cycle average of tags in use
system.cpu.itb_walker_cache.tags.total_refs            0                       # Total number of references to valid blocks.
system.cpu.itb_walker_cache.tags.sampled_refs            0                       # Sample count of references to valid blocks.
system.cpu.itb_walker_cache.tags.avg_refs          nan                       # Average number of references to valid blocks.
system.cpu.itb_walker_cache.tags.warmup_cycle            0                       # Cycle when the warmup percentage was hit.
system.cpu.itb_walker_cache.tags.tag_accesses            0                       # Number of tag accesses
system.cpu.itb_walker_cache.tags.data_accesses            0                       # Number of data accesses
system.cpu.itb_walker_cache.tags.power_state.pwrStateResidencyTicks::UNDEFINED 192812947500                       # Cumulative time (in ticks) in various power states
system.cpu.power_state.pwrStateResidencyTicks::ON 192812947500                       # Cumulative time (in ticks) in various power states
system.cpu.thread_0.numInsts                        0                       # Number of Instructions committed
system.cpu.thread_0.numOps                          0                       # Number of Ops committed
system.cpu.thread_0.numMemRefs                      0                       # Number of Memory References
system.cpu_clk_domain.clock                       500                       # Clock period in ticks
system.cpu_voltage_domain.voltage                   1                       # Voltage in Volts
system.l2.demand_hits::.cpu.inst                   26                       # number of demand (read+write) hits
system.l2.demand_hits::.cpu.data                47328                       # number of demand (read+write) hits
system.l2.demand_hits::total                    47354                       # number of demand (read+write) hits
system.l2.overall_hits::.cpu.inst                  26                       # number of overall hits
system.l2.overall_hits::.cpu.data               47328                       # number of overall hits
system.l2.overall_hits::total                   47354                       # number of overall hits
system.l2.demand_misses::.cpu.inst               2488                       # number of demand (read+write) misses
system.l2.demand_misses::.cpu.data              17246                       # number of demand (read+write) misses
system.l2.demand_misses::total                  19734                       # number of demand (read+write) misses
system.l2.overall_misses::.cpu.inst              2488                       # number of overall misses
system.l2.overall_misses::.cpu.data             17246                       # number of overall misses
system.l2.overall_misses::total                 19734                       # number of overall misses
system.l2.demand_miss_latency::.cpu.inst    186056500                       # number of demand (read+write) miss cycles
system.l2.demand_miss_latency::.cpu.data   1362426500                       # number of demand (read+write) miss cycles
system.l2.demand_miss_latency::total       1548483000                       # number of demand (read+write) miss cycles
system.l2.overall_miss_latency::.cpu.inst    186056500                       # number of overall miss cycles
system.l2.overall_miss_latency::.cpu.data   1362426500                       # number of overall miss cycles
system.l2.overall_miss_latency::total      1548483000                       # number of overall miss cycles
system.l2.demand_accesses::.cpu.inst             2514                       # number of demand (read+write) accesses
system.l2.demand_accesses::.cpu.data            64574                       # number of demand (read+write) accesses
system.l2.demand_accesses::total                67088                       # number of demand (read+write) accesses
system.l2.overall_accesses::.cpu.inst            2514                       # number of overall (read+write) accesses
system.l2.overall_accesses::.cpu.data           64574                       # number of overall (read+write) accesses
system.l2.overall_accesses::total               67088                       # number of overall (read+write) accesses
system.l2.demand_miss_rate::.cpu.inst        0.989658                       # miss rate for demand accesses
system.l2.demand_miss_rate::.cpu.data        0.267073                       # miss rate for demand accesses
system.l2.demand_miss_rate::total            0.294151                       # miss rate for demand accesses
system.l2.overall_miss_rate::.cpu.inst       0.989658                       # miss rate for overall accesses
system.l2.overall_miss_rate::.cpu.data       0.267073                       # miss rate for overall accesses
system.l2.overall_miss_rate::total           0.294151                       # miss rate for overall accesses
system.l2.demand_avg_miss_latency::.cpu.inst 74781.551447                       # average overall miss latency
system.l2.demand_avg_miss_latency::.cpu.data 78999.565117                       # average overall miss latency
system.l2.demand_avg_miss_latency::total 78467.771359                       # average overall miss latency
system.l2.overall_avg_miss_latency::.cpu.inst 74781.551447                       # average overall miss latency
system.l2.overall_avg_miss_latency::.cpu.data 78999.565117                       # average overall miss latency
system.l2.overall_avg_miss_latency::total 78467.771359                       # average overall miss latency
system.l2.blocked_cycles::no_mshrs                  0                       # number of cycles access was blocked
system.l2.blocked_cycles::no_targets                0                       # number of cycles access was blocked
system.l2.blocked::no_mshrs                         0                       # number of cycles access was blocked
system.l2.blocked::no_targets                       0                       # number of cycles access was blocked
system.l2.avg_blocked_cycles::no_mshrs            nan                       # average number of cycles each access was blocked
system.l2.avg_blocked_cycles::no_targets          nan                       # average number of cycles each access was blocked
system.l2.writebacks::.writebacks                9472                       # number of writebacks
system.l2.writebacks::total                      9472                       # number of writebacks
system.l2.demand_mshr_misses::.cpu.inst          2488                       # number of demand (read+write) MSHR misses
system.l2.demand_mshr_misses::.cpu.data         17246                       # number of demand (read+write) MSHR misses
system.l2.demand_mshr_misses::total             19734                       # number of demand (read+write) MSHR misses
system.l2.overall_mshr_misses::.cpu.inst         2488                       # number of overall MSHR misses
system.l2.overall_mshr_misses::.cpu.data        17246                       # number of overall MSHR misses
system.l2.overall_mshr_misses::total            19734                       # number of overall MSHR misses
system.l2.demand_mshr_miss_latency::.cpu.inst    161176500                       # number of demand (read+write) MSHR miss cycles
system.l2.demand_mshr_miss_latency::.cpu.data   1189966500                       # number of demand (read+write) MSHR miss cycles
system.l2.demand_mshr_miss_latency::total   1351143000                       # number of demand (read+write) MSHR miss cycles
system.l2.overall_mshr_miss_latency::.cpu.inst    161176500                       # number of overall MSHR miss cycles
system.l2.overall_mshr_miss_latency::.cpu.data   1189966500                       # number of overall MSHR miss cycles
system.l2.overall_mshr_miss_latency::total   1351143000                       # number of overall MSHR miss cycles
system.l2.demand_mshr_miss_rate::.cpu.inst     0.989658                       # mshr miss rate for demand accesses
system.l2.demand_mshr_miss_rate::.cpu.data     0.267073                       # mshr miss rate for demand accesses
system.l2.demand_mshr_miss_rate::total       0.294151                       # mshr miss rate for demand accesses
system.l2.overall_mshr_miss_rate::.cpu.inst     0.989658                       # mshr miss rate for overall accesses
system.l2.overall_mshr_miss_rate::.cpu.data     0.267073                       # mshr miss rate for overall accesses
system.l2.overall_mshr_miss_rate::total      0.294151                       # mshr miss rate for overall accesses
system.l2.demand_avg_mshr_miss_latency::.cpu.inst 64781.551447                       # average overall mshr miss latency
system.l2.demand_avg_mshr_miss_latency::.cpu.data 68999.565117                       # average overall mshr miss latency
system.l2.demand_avg_mshr_miss_latency::total 68467.771359                       # average overall mshr miss latency
system.l2.overall_avg_mshr_miss_latency::.cpu.inst 64781.551447                       # average overall mshr miss latency
system.l2.overall_avg_mshr_miss_latency::.cpu.data 68999.565117                       # average overall mshr miss latency
system.l2.overall_avg_mshr_miss_latency::total 68467.771359                       # average overall mshr miss latency
system.l2.replacements                          30624                       # number of replacements
system.l2.WritebackDirty_hits::.writebacks        57563                       # number of WritebackDirty hits
system.l2.WritebackDirty_hits::total            57563                       # number of WritebackDirty hits
system.l2.WritebackDirty_accesses::.writebacks        57563                       # number of WritebackDirty accesses(hits+misses)
system.l2.WritebackDirty_accesses::total        57563                       # number of WritebackDirty accesses(hits+misses)
system.l2.WritebackClean_hits::.writebacks          331                       # number of WritebackClean hits
system.l2.WritebackClean_hits::total              331                       # number of WritebackClean hits
system.l2.WritebackClean_accesses::.writebacks          331                       # number of WritebackClean accesses(hits+misses)
system.l2.WritebackClean_accesses::total          331                       # number of WritebackClean accesses(hits+misses)
system.l2.CleanEvict_mshr_misses::.writebacks         1251                       # number of CleanEvict MSHR misses
system.l2.CleanEvict_mshr_misses::total          1251                       # number of CleanEvict MSHR misses
system.l2.CleanEvict_mshr_miss_rate::.writebacks          inf                       # mshr miss rate for CleanEvict accesses
system.l2.CleanEvict_mshr_miss_rate::total          inf                       # mshr miss rate for CleanEvict accesses
system.l2.ReadExReq_hits::.cpu.data             34206                       # number of ReadExReq hits
system.l2.ReadExReq_hits::total                 34206                       # number of ReadExReq hits
system.l2.ReadExReq_misses::.cpu.data           14446                       # number of ReadExReq misses
system.l2.ReadExReq_misses::total               14446                       # number of ReadExReq misses
system.l2.ReadExReq_miss_latency::.cpu.data   1142116000                       # number of ReadExReq miss cycles
system.l2.ReadExReq_miss_latency::total    1142116000                       # number of ReadExReq miss cycles
system.l2.ReadExReq_accesses::.cpu.data         48652                       # number of ReadExReq accesses(hits+misses)
system.l2.ReadExReq_accesses::total             48652                       # number of ReadExReq accesses(hits+misses)
system.l2.ReadExReq_miss_rate::.cpu.data     0.296925                       # miss rate for ReadExReq accesses
system.l2.ReadExReq_miss_rate::total         0.296925                       # miss rate for ReadExReq accesses
system.l2.ReadExReq_avg_miss_latency::.cpu.data 79061.054963                       # average ReadExReq miss latency
system.l2.ReadExReq_avg_miss_latency::total 79061.054963                       # average ReadExReq miss latency
system.l2.ReadExReq_mshr_misses::.cpu.data        14446                       # number of ReadExReq MSHR misses
system.l2.ReadExReq_mshr_misses::total          14446                       # number of ReadExReq MSHR misses
system.l2.ReadExReq_mshr_miss_latency::.cpu.data    997656000                       # number of ReadExReq MSHR miss cycles
system.l2.ReadExReq_mshr_miss_latency::total    997656000                       # number of ReadExReq MSHR miss cycles
system.l2.ReadExReq_mshr_miss_rate::.cpu.data     0.296925                       # mshr miss rate for ReadExReq accesses
system.l2.ReadExReq_mshr_miss_rate::total     0.296925                       # mshr miss rate for ReadExReq accesses
system.l2.ReadExReq_avg_mshr_miss_latency::.cpu.data 69061.054963                       # average ReadExReq mshr miss latency
system.l2.ReadExReq_avg_mshr_miss_latency::total 69061.054963                       # average ReadExReq mshr miss latency
system.l2.ReadCleanReq_hits::.cpu.inst             26                       # number of ReadCleanReq hits
system.l2.ReadCleanReq_hits::total                 26                       # number of ReadCleanReq hits
system.l2.ReadCleanReq_misses::.cpu.inst         2488                       # number of ReadCleanReq misses
system.l2.ReadCleanReq_misses::total             2488                       # number of ReadCleanReq misses
system.l2.ReadCleanReq_miss_latency::.cpu.inst    186056500                       # number of ReadCleanReq miss cycles
system.l2.ReadCleanReq_miss_latency::total    186056500                       # number of ReadCleanReq miss cycles
system.l2.ReadCleanReq_accesses::.cpu.inst         2514                       # number of ReadCleanReq accesses(hits+misses)
system.l2.ReadCleanReq_accesses::total           2514                       # number of ReadCleanReq accesses(hits+misses)
system.l2.ReadCleanReq_miss_rate::.cpu.inst     0.989658                       # miss rate for ReadCleanReq accesses
system.l2.ReadCleanReq_miss_rate::total      0.989658                       # miss rate for ReadCleanReq accesses
system.l2.ReadCleanReq_avg_miss_latency::.cpu.inst 74781.551447                       # average ReadCleanReq miss latency
system.l2.ReadCleanReq_avg_miss_latency::total 74781.551447                       # average ReadCleanReq miss latency
system.l2.ReadCleanReq_mshr_misses::.cpu.inst         2488                       # number of ReadCleanReq MSHR misses
system.l2.ReadCleanReq_mshr_misses::total         2488                       # number of ReadCleanReq MSHR misses
system.l2.ReadCleanReq_mshr_miss_latency::.cpu.inst    161176500                       # number of ReadCleanReq MSHR miss cycles
system.l2.ReadCleanReq_mshr_miss_latency::total    161176500                       # number of ReadCleanReq MSHR miss cycles
system.l2.ReadCleanReq_mshr_miss_rate::.cpu.inst     0.989658                       # mshr miss rate for ReadCleanReq accesses
system.l2.ReadCleanReq_mshr_miss_rate::total     0.989658                       # mshr miss rate for ReadCleanReq accesses
system.l2.ReadCleanReq_avg_mshr_miss_latency::.cpu.inst 64781.551447                       # average ReadCleanReq mshr miss latency
system.l2.ReadCleanReq_avg_mshr_miss_latency::total 64781.551447                       # average ReadCleanReq mshr miss latency
system.l2.ReadSharedReq_hits::.cpu.data         13122                       # number of ReadSharedReq hits
system.l2.ReadSharedReq_hits::total             13122                       # number of ReadSharedReq hits
system.l2.ReadSharedReq_misses::.cpu.data         2800                       # number of ReadSharedReq misses
system.l2.ReadSharedReq_misses::total            2800                       # number of ReadSharedReq misses
system.l2.ReadSharedReq_miss_latency::.cpu.data    220310500                       # number of ReadSharedReq miss cycles
system.l2.ReadSharedReq_miss_latency::total    220310500                       # number of ReadSharedReq miss cycles
system.l2.ReadSharedReq_accesses::.cpu.data        15922                       # number of ReadSharedReq accesses(hits+misses)
system.l2.ReadSharedReq_accesses::total         15922                       # number of ReadSharedReq accesses(hits+misses)
system.l2.ReadSharedReq_miss_rate::.cpu.data     0.175857                       # miss rate for ReadSharedReq accesses
system.l2.ReadSharedReq_miss_rate::total     0.175857                       # miss rate for ReadSharedReq accesses
system.l2.ReadSharedReq_avg_miss_latency::.cpu.data 78682.321429                       # average ReadSharedReq miss latency
system.l2.ReadSharedReq_avg_miss_latency::total 78682.321429                       # average ReadSharedReq miss latency
system.l2.ReadSharedReq_mshr_misses::.cpu.data         2800                       # number of ReadSharedReq MSHR misses
system.l2.ReadSharedReq_mshr_misses::total         2800                       # number of ReadSharedReq MSHR misses
system.l2.ReadSharedReq_mshr_miss_latency::.cpu.data    192310500                       # number of ReadSharedReq MSHR miss cycles
system.l2.ReadSharedReq_mshr_miss_latency::total    192310500                       # number of ReadSharedReq MSHR miss cycles
system.l2.ReadSharedReq_mshr_miss_rate::.cpu.data     0.175857                       # mshr miss rate for ReadSharedReq accesses
system.l2.ReadSharedReq_mshr_miss_rate::total     0.175857                       # mshr miss rate for ReadSharedReq accesses
system.l2.ReadSharedReq_avg_mshr_miss_latency::.cpu.data 68682.321429                       # average ReadSharedReq mshr miss latency
system.l2.ReadSharedReq_avg_mshr_miss_latency::total 68682.321429                       # average ReadSharedReq mshr miss latency
system.l2.power_state.pwrStateResidencyTicks::UNDEFINED 192812947500                       # Cumulative time (in ticks) in various power states
system.l2.tags.tagsinuse                  4084.783940                       # Cycle average of tags in use
system.l2.tags.total_refs                      126646                       # Total number of references to valid blocks.
system.l2.tags.sampled_refs                     34720                       # Sample count of references to valid blocks.
system.l2.tags.avg_refs                      3.647638                       # Average number of references to valid blocks.
system.l2.tags.warmup_cycle                     77000                       # Cycle when the warmup percentage was hit.
system.l2.tags.occ_blocks::.writebacks    1971.663930                       # Average occupied blocks per requestor
system.l2.tags.occ_blocks::.cpu.inst        59.645868                       # Average occupied blocks per requestor
system.l2.tags.occ_blocks::.cpu.data      2053.474142                       # Average occupied blocks per requestor
system.l2.tags.occ_percent::.writebacks      0.481363                       # Average percentage of cache occupancy
system.l2.tags.occ_percent::.cpu.inst        0.014562                       # Average percentage of cache occupancy
system.l2.tags.occ_percent::.cpu.data        0.501336                       # Average percentage of cache occupancy
system.l2.tags.occ_percent::total            0.997262                       # Average percentage of cache occupancy
system.l2.tags.occ_task_id_blocks::1024          4096                       # Occupied blocks per task id
system.l2.tags.age_task_id_blocks_1024::2            1                       # Occupied blocks per task id
system.l2.tags.age_task_id_blocks_1024::3           89                       # Occupied blocks per task id
system.l2.tags.age_task_id_blocks_1024::4         4006                       # Occupied blocks per task id
system.l2.tags.occ_task_id_percent::1024            1                       # Percentage of cache occupancy per task id
system.l2.tags.tag_accesses                   8220128                       # Number of tag accesses
system.l2.tags.data_accesses                  8220128                       # Number of data accesses
system.l2.tags.power_state.pwrStateResidencyTicks::UNDEFINED 192812947500                       # Cumulative time (in ticks) in various power states
system.mem_ctrls.avgPriority_.writebacks::samples      7367.00                       # Average QoS priority value for accepted requests
system.mem_ctrls.avgPriority_.cpu.inst::samples      2488.00                       # Average QoS priority value for accepted requests
system.mem_ctrls.avgPriority_.cpu.data::samples     17091.00                       # Average QoS priority value for accepted requests
system.mem_ctrls.priorityMinLatency      0.000000018750                       # per QoS priority minimum request to response latency (s)
system.mem_ctrls.priorityMaxLatency      0.069506951750                       # per QoS priority maximum request to response latency (s)
system.mem_ctrls.numReadWriteTurnArounds          424                       # Number of turnarounds from READ to WRITE
system.mem_ctrls.numWriteReadTurnArounds          424                       # Number of turnarounds from WRITE to READ
system.mem_ctrls.numStayReadState               97824                       # Number of times bus staying in READ state
system.mem_ctrls.numStayWriteState               6928                       # Number of times bus staying in WRITE state
system.mem_ctrls.readReqs                       19734                       # Number of read requests accepted
system.mem_ctrls.writeReqs                       9472                       # Number of write requests accepted
system.mem_ctrls.readBursts                     19734                       # Number of controller read bursts, including those serviced by the write queue
system.mem_ctrls.writeBursts                     9472                       # Number of controller write bursts, including those merged in the write queue
system.mem_ctrls.servicedByWrQ                    155                       # Number of controller read bursts serviced by the write queue
system.mem_ctrls.mergedWrBursts                  2105                       # Number of controller write bursts merged with an existing one
system.mem_ctrls.neitherReadNorWriteReqs            0                       # Number of requests that are neither read nor write
system.mem_ctrls.avgRdQLen                       1.00                       # Average read queue length when enqueuing
system.mem_ctrls.avgWrQLen                      23.56                       # Average write queue length when enqueuing
system.mem_ctrls.numRdRetry                         0                       # Number of times read queue was full causing retry
system.mem_ctrls.numWrRetry                         0                       # Number of times write queue was full causing retry
system.mem_ctrls.readPktSize::0                     0                       # Read request sizes (log2)
system.mem_ctrls.readPktSize::1                     0                       # Read request sizes (log2)
system.mem_ctrls.readPktSize::2                     0                       # Read request sizes (log2)
system.mem_ctrls.readPktSize::3                     0                       # Read request sizes (log2)
system.mem_ctrls.readPktSize::4                     0                       # Read request sizes (log2)
system.mem_ctrls.readPktSize::5                 19734                       # Read request sizes (log2)
system.mem_ctrls.writePktSize::0                    0                       # Write request sizes (log2)
system.mem_ctrls.writePktSize::1                    0                       # Write request sizes (log2)
system.mem_ctrls.writePktSize::2                    0                       # Write request sizes (log2)
system.mem_ctrls.writePktSize::3                    0                       # Write request sizes (log2)
system.mem_ctrls.writePktSize::4                    0                       # Write request sizes (log2)
system.mem_ctrls.writePktSize::5                 9472                       # Write request sizes (log2)
system.mem_ctrls.rdQLenPdf::0                   18914                       # What read queue length does an incoming req see
system.mem_ctrls.rdQLenPdf::1                     658                       # What read queue length does an incoming req see
system.mem_ctrls.rdQLenPdf::2                       7                       # What read queue length does an incoming req see
system.mem_ctrls.rdQLenPdf::3                       0                       # What read queue length does an incoming req see
system.mem_ctrls.rdQLenPdf::4                       0                       # What read queue length does an incoming req see
system.mem_ctrls.rdQLenPdf::5                       0                       # What read queue length does an incoming req see
system.mem_ctrls.rdQLenPdf::6                       0                       # What read queue length does an incoming req see
system.mem_ctrls.rdQLenPdf::7                       0                       # What read queue length does an incoming req see
system.mem_ctrls.rdQLenPdf::8                       0                       # What read queue length does an incoming req see
system.mem_ctrls.rdQLenPdf::9                       0                       # What read queue length does an incoming req see
system.mem_ctrls.rdQLenPdf::10                      0                       # What read queue length does an incoming req see
system.mem_ctrls.rdQLenPdf::11                      0                       # What read queue length does an incoming req see
system.mem_ctrls.rdQLenPdf::12                      0                       # What read queue length does an incoming req see
system.mem_ctrls.rdQLenPdf::13                      0                       # What read queue length does an incoming req see
system.mem_ctrls.rdQLenPdf::14                      0                       # What read queue length does an incoming req see
system.mem_ctrls.rdQLenPdf::15                      0                       # What read queue length does an incoming req see
system.mem_ctrls.rdQLenPdf::16                      0                       # What read queue length does an incoming req see
system.mem_ctrls.rdQLenPdf::17                      0                       # What read queue length does an incoming req see
system.mem_ctrls.rdQLenPdf::18                      0                       # What read queue length does an incoming req see
system.mem_ctrls.rdQLenPdf::19                      0                       # What read queue length does an incoming req see
system.mem_ctrls.rdQLenPdf::20                      0                       # What read queue length does an incoming req see
system.mem_ctrls.rdQLenPdf::21                      0                       # What read queue length does an incoming req see
system.mem_ctrls.rdQLenPdf::22                      0                       # What read queue length does an incoming req see
system.mem_ctrls.rdQLenPdf::23                      0                       # What read queue length does an incoming req see
system.mem_ctrls.rdQLenPdf::24                      0                       # What read queue length does an incoming req see
system.mem_ctrls.rdQLenPdf::25                      0                       # What read queue length does an incoming req see
system.mem_ctrls.rdQLenPdf::26                      0                       # What read queue length does an incoming req see
system.mem_ctrls.rdQLenPdf::27                      0                       # What read queue length does an incoming req see
system.mem_ctrls.rdQLenPdf::28                      0                       # What read queue length does an incoming req see
system.mem_ctrls.rdQLenPdf::29                      0                       # What read queue length does an incoming req see
system.mem_ctrls.rdQLenPdf::30                      0                       # What read queue length does an incoming req see
system.mem_ctrls.rdQLenPdf::31                      0                       # What read queue length does an incoming req see
system.mem_ctrls.wrQLenPdf::0                       1                       # What write queue length does an incoming req see
system.mem_ctrls.wrQLenPdf::1                       1                       # What write queue length does an incoming req see
system.mem_ctrls.wrQLenPdf::2                       1                       # What write queue length does an incoming req see
system.mem_ctrls.wrQLenPdf::3                       1                       # What write queue length does an incoming req see
system.mem_ctrls.wrQLenPdf::4                       1                       # What write queue length does an incoming req see
system.mem_ctrls.wrQLenPdf::5                       1                       # What write queue length does an incoming req see
system.mem_ctrls.wrQLenPdf::6                       1                       # What write queue length does an incoming req see
system.mem_ctrls.wrQLenPdf::7                       1                       # What write queue length does an incoming req see
system.mem_ctrls.wrQLenPdf::8                       1                       # What write queue length does an incoming req see
system.mem_ctrls.wrQLenPdf::9                       1                       # What write queue length does an incoming req see
system.mem_ctrls.wrQLenPdf::10                      1                       # What write queue length does an incoming req see
system.mem_ctrls.wrQLenPdf::11                      1                       # What write queue length does an incoming req see
system.mem_ctrls.wrQLenPdf::12                      1                       # What write queue length does an incoming req see
system.mem_ctrls.wrQLenPdf::13                      1                       # What write queue length does an incoming req see
system.mem_ctrls.wrQLenPdf::14                      1                       # What write queue length does an incoming req see
system.mem_ctrls.wrQLenPdf::15                    251                       # What write queue length does an incoming req see
system.mem_ctrls.wrQLenPdf::16                    266                       # What write queue length does an incoming req see
system.mem_ctrls.wrQLenPdf::17                    417                       # What write queue length does an incoming req see
system.mem_ctrls.wrQLenPdf::18                    431                       # What write queue length does an incoming req see
system.mem_ctrls.wrQLenPdf::19                    430                       # What write queue length does an incoming req see
system.mem_ctrls.wrQLenPdf::20                    430                       # What write queue length does an incoming req see
system.mem_ctrls.wrQLenPdf::21                    428                       # What write queue length does an incoming req see
system.mem_ctrls.wrQLenPdf::22                    427                       # What write queue length does an incoming req see
system.mem_ctrls.wrQLenPdf::23                    432                       # What write queue length does an incoming req see
system.mem_ctrls.wrQLenPdf::24                    431                       # What write queue length does an incoming req see
system.mem_ctrls.wrQLenPdf::25                    429                       # What write queue length does an incoming req see
system.mem_ctrls.wrQLenPdf::26                    430                       # What write queue length does an incoming req see
system.mem_ctrls.wrQLenPdf::27                    427                       # What write queue length does an incoming req see
system.mem_ctrls.wrQLenPdf::28                    425                       # What write queue length does an incoming req see
system.mem_ctrls.wrQLenPdf::29                    426                       # What write queue length does an incoming req see
system.mem_ctrls.wrQLenPdf::30                    424                       # What write queue length does an incoming req see
system.mem_ctrls.wrQLenPdf::31                    424                       # What write queue length does an incoming req see
system.mem_ctrls.wrQLenPdf::32                    424                       # What write queue length does an incoming req see
system.mem_ctrls.wrQLenPdf::33                      0                       # What write queue length does an incoming req see
system.mem_ctrls.wrQLenPdf::34                      0                       # What write queue length does an incoming req see
system.mem_ctrls.wrQLenPdf::35                      0                       # What write queue length does an incoming req see
system.mem_ctrls.wrQLenPdf::36                      0                       # What write queue length does an incoming req see
system.mem_ctrls.wrQLenPdf::37                      0                       # What write queue length does an incoming req see
system.mem_ctrls.wrQLenPdf::38                      0                       # What write queue length does an incoming req see
system.mem_ctrls.wrQLenPdf::39                      0                       # What write queue length does an incoming req see
system.mem_ctrls.wrQLenPdf::40                      0                       # What write queue length does an incoming req see
system.mem_ctrls.wrQLenPdf::41                      0                       # What write queue length does an incoming req see
system.mem_ctrls.wrQLenPdf::42                      0                       # What write queue length does an incoming req see
system.mem_ctrls.wrQLenPdf::43                      0                       # What write queue length does an incoming req see
system.mem_ctrls.wrQLenPdf::44                      0                       # What write queue length does an incoming req see
system.mem_ctrls.wrQLenPdf::45                      0                       # What write queue length does an incoming req see
system.mem_ctrls.wrQLenPdf::46                      0                       # What write queue length does an incoming req see
system.mem_ctrls.wrQLenPdf::47                      0                       # What write queue length does an incoming req see
system.mem_ctrls.wrQLenPdf::48                      0                       # What write queue length does an incoming req see
system.mem_ctrls.wrQLenPdf::49                      0                       # What write queue length does an incoming req see
system.mem_ctrls.wrQLenPdf::50                      0                       # What write queue length does an incoming req see
system.mem_ctrls.wrQLenPdf::51                      0                       # What write queue length does an incoming req see
system.mem_ctrls.wrQLenPdf::52                      0                       # What write queue length does an incoming req see
system.mem_ctrls.wrQLenPdf::53                      0                       # What write queue length does an incoming req see
system.mem_ctrls.wrQLenPdf::54                      0                       # What write queue length does an incoming req see
system.mem_ctrls.wrQLenPdf::55                      0                       # What write queue length does an incoming req see
system.mem_ctrls.wrQLenPdf::56                      0                       # What write queue length does an incoming req see
system.mem_ctrls.wrQLenPdf::57                      0                       # What write queue length does an incoming req see
system.mem_ctrls.wrQLenPdf::58                      0                       # What write queue length does an incoming req see
system.mem_ctrls.wrQLenPdf::59                      0                       # What write queue length does an incoming req see
system.mem_ctrls.wrQLenPdf::60                      0                       # What write queue length does an incoming req see
system.mem_ctrls.wrQLenPdf::61                      0                       # What write queue length does an incoming req see
system.mem_ctrls.wrQLenPdf::62                      0                       # What write queue length does an incoming req see
system.mem_ctrls.wrQLenPdf::63                      0                       # What write queue length does an incoming req see
system.mem_ctrls.rdPerTurnAround::samples          424                       # Reads before turning the bus around for writes
system.mem_ctrls.rdPerTurnAround::mean      46.084906                       # Reads before turning the bus around for writes
system.mem_ctrls.rdPerTurnAround::stdev    406.552975                       # Reads before turning the bus around for writes
system.mem_ctrls.rdPerTurnAround::0-511           423     99.76%     99.76% # Reads before turning the bus around for writes
system.mem_ctrls.rdPerTurnAround::8192-8703            1      0.24%    100.00% # Reads before turning the bus around for writes
system.mem_ctrls.rdPerTurnAround::total           424                       # Reads before turning the bus around for writes
system.mem_ctrls.wrPerTurnAround::samples          424                       # Writes before turning the bus around for reads
system.mem_ctrls.wrPerTurnAround::mean      17.316038                       # Writes before turning the bus around for reads
system.mem_ctrls.wrPerTurnAround::gmean     17.280539                       # Writes before turning the bus around for reads
system.mem_ctrls.wrPerTurnAround::stdev      1.106237                       # Writes before turning the bus around for reads
system.mem_ctrls.wrPerTurnAround::16              165     38.92%     38.92% # Writes before turning the bus around for reads
system.mem_ctrls.wrPerTurnAround::17                5      1.18%     40.09% # Writes before turning the bus around for reads
system.mem_ctrls.wrPerTurnAround::18              212     50.00%     90.09% # Writes before turning the bus around for reads
system.mem_ctrls.wrPerTurnAround::19               39      9.20%     99.29% # Writes before turning the bus around for reads
system.mem_ctrls.wrPerTurnAround::20                3      0.71%    100.00% # Writes before turning the bus around for reads
system.mem_ctrls.wrPerTurnAround::total           424                       # Writes before turning the bus around for reads
[...]
system.mem_ctrls.dram.bw_total::.cpu.data      2862214                       # Total bandwidth to/from this memory (bytes/s)
system.mem_ctrls.dram.bw_total::total         4847143                       # Total bandwidth to/from this memory (bytes/s)
system.mem_ctrls.dram.readBursts                19579                       # Number of DRAM read bursts
system.mem_ctrls.dram.writeBursts                7342                       # Number of DRAM write bursts
system.mem_ctrls.dram.perBankRdBursts::0         1336                       # Per bank write bursts
system.mem_ctrls.dram.perBankRdBursts::1         1604                       # Per bank write bursts
system.mem_ctrls.dram.perBankRdBursts::2         1333                       # Per bank write bursts
system.mem_ctrls.dram.perBankRdBursts::3         1590                       # Per bank write bursts
system.mem_ctrls.dram.perBankRdBursts::4         1404                       # Per bank write bursts
system.mem_ctrls.dram.perBankRdBursts::5         1310                       # Per bank write bursts
system.mem_ctrls.dram.perBankRdBursts::6         1348                       # Per bank write bursts
system.mem_ctrls.dram.perBankRdBursts::7         1224                       # Per bank write bursts
system.mem_ctrls.dram.perBankRdBursts::8         1305                       # Per bank write bursts
system.mem_ctrls.dram.perBankRdBursts::9         1093                       # Per bank write bursts
system.mem_ctrls.dram.perBankRdBursts::10          714                       # Per bank write bursts
system.mem_ctrls.dram.perBankRdBursts::11         1020                       # Per bank write bursts
system.mem_ctrls.dram.perBankRdBursts::12          888                       # Per bank write bursts
system.mem_ctrls.dram.perBankRdBursts::13         1031                       # Per bank write bursts
system.mem_ctrls.dram.perBankRdBursts::14         1129                       # Per bank write bursts
system.mem_ctrls.dram.perBankRdBursts::15         1250                       # Per bank write bursts
system.mem_ctrls.dram.perBankWrBursts::0          535                       # Per bank write bursts
system.mem_ctrls.dram.perBankWrBursts::1          541                       # Per bank write bursts
system.mem_ctrls.dram.perBankWrBursts::2          413                       # Per bank write bursts
system.mem_ctrls.dram.perBankWrBursts::3          570                       # Per bank write bursts
system.mem_ctrls.dram.perBankWrBursts::4          468                       # Per bank write bursts
system.mem_ctrls.dram.perBankWrBursts::5          669                       # Per bank write bursts
system.mem_ctrls.dram.perBankWrBursts::6          623                       # Per bank write bursts
system.mem_ctrls.dram.perBankWrBursts::7          639                       # Per bank write bursts
system.mem_ctrls.dram.perBankWrBursts::8          529                       # Per bank write bursts
system.mem_ctrls.dram.perBankWrBursts::9          383                       # Per bank write bursts
system.mem_ctrls.dram.perBankWrBursts::10          257                       # Per bank write bursts
system.mem_ctrls.dram.perBankWrBursts::11          365                       # Per bank write bursts
system.mem_ctrls.dram.perBankWrBursts::12          282                       # Per bank write bursts
system.mem_ctrls.dram.perBankWrBursts::13          338                       # Per bank write bursts
system.mem_ctrls.dram.perBankWrBursts::14          279                       # Per bank write bursts
system.mem_ctrls.dram.perBankWrBursts::15          451                       # Per bank write bursts
system.mem_ctrls.dram.totQLat               179883000                       # Total ticks spent queuing
system.mem_ctrls.dram.totBusLat              97895000                       # Total ticks spent in databus transfers
system.mem_ctrls.dram.totMemAccLat          546989250                       # Total ticks spent from burst creation until serviced by the DRAM
system.mem_ctrls.dram.avgQLat                 9187.55                       # Average queueing delay per DRAM burst
system.mem_ctrls.dram.avgBusLat               5000.00                       # Average bus latency per DRAM burst
system.mem_ctrls.dram.avgMemAccLat           27937.55                       # Average memory access latency per DRAM burst
system.mem_ctrls.dram.readRowHits               14351                       # Number of row buffer hits during reads
system.mem_ctrls.dram.writeRowHits               6197                       # Number of row buffer hits during writes
system.mem_ctrls.dram.readRowHitRate            73.30                       # Row buffer hit rate for reads
system.mem_ctrls.dram.writeRowHitRate           84.40                       # Row buffer hit rate for writes
system.mem_ctrls.dram.bytesPerActivate::samples         6373                       # Bytes accessed per row activation
system.mem_ctrls.dram.bytesPerActivate::mean   270.350541                       # Bytes accessed per row activation
system.mem_ctrls.dram.bytesPerActivate::gmean   164.814284                       # Bytes accessed per row activation
system.mem_ctrls.dram.bytesPerActivate::stdev   306.776711                       # Bytes accessed per row activation
system.mem_ctrls.dram.bytesPerActivate::0-127         2118     33.23%     33.23% # Bytes accessed per row activation
system.mem_ctrls.dram.bytesPerActivate::128-255         2224     34.90%     68.13% # Bytes accessed per row activation
system.mem_ctrls.dram.bytesPerActivate::256-383          662     10.39%     78.52% # Bytes accessed per row activation
system.mem_ctrls.dram.bytesPerActivate::384-511          210      3.30%     81.81% # Bytes accessed per row activation
system.mem_ctrls.dram.bytesPerActivate::512-639          175      2.75%     84.56% # Bytes accessed per row activation
system.mem_ctrls.dram.bytesPerActivate::640-767          157      2.46%     87.02% # Bytes accessed per row activation
system.mem_ctrls.dram.bytesPerActivate::768-895          101      1.58%     88.61% # Bytes accessed per row activation
system.mem_ctrls.dram.bytesPerActivate::896-1023           98      1.54%     90.15% # Bytes accessed per row activation
system.mem_ctrls.dram.bytesPerActivate::1024-1151          628      9.85%    100.00% # Bytes accessed per row activation
system.mem_ctrls.dram.bytesPerActivate::total         6373                       # Bytes accessed per row activation
system.mem_ctrls.dram.bytesRead               1253056                       # Total number of bytes read from DRAM
system.mem_ctrls.dram.bytesWritten             469888                       # Total number of bytes written to DRAM
system.mem_ctrls.dram.avgRdBW                6.498817                       # Average DRAM read bandwidth in MiBytes/s
system.mem_ctrls.dram.avgWrBW                2.437015                       # Average DRAM write bandwidth in MiBytes/s
system.mem_ctrls.dram.peakBW                 12800.00                       # Theoretical peak bandwidth in MiByte/s
system.mem_ctrls.dram.busUtil                    0.07                       # Data bus utilization in percentage
system.mem_ctrls.dram.busUtilRead                0.05                       # Data bus utilization in percentage for reads
system.mem_ctrls.dram.busUtilWrite               0.02                       # Data bus utilization in percentage for writes
system.mem_ctrls.dram.pageHitRate               76.33                       # Row buffer hit rate, read and write combined
system.mem_ctrls.dram.power_state.pwrStateResidencyTicks::UNDEFINED 192812947500                       # Cumulative time (in ticks) in various power states
system.mem_ctrls.dram.rank0.actEnergy        25439820                       # Energy for activate commands per rank (pJ)
system.mem_ctrls.dram.rank0.preEnergy        13521585                       # Energy for precharge commands per rank (pJ)
system.mem_ctrls.dram.rank0.readEnergy       79603860                       # Energy for read commands per rank (pJ)
system.mem_ctrls.dram.rank0.writeEnergy      23270760                       # Energy for write commands per rank (pJ)
system.mem_ctrls.dram.rank0.refreshEnergy 15220330320.000002                       # Energy for refresh commands per rank (pJ)
system.mem_ctrls.dram.rank0.actBackEnergy   7159268970                       # Energy for active background per rank (pJ)
system.mem_ctrls.dram.rank0.preBackEnergy  68011313760                       # Energy for precharge background per rank (pJ)
system.mem_ctrls.dram.rank0.actPowerDownEnergy            0                       # Energy for active power-down per rank (pJ)
system.mem_ctrls.dram.rank0.prePowerDownEnergy            0                       # Energy for precharge power-down per rank (pJ)
system.mem_ctrls.dram.rank0.selfRefreshEnergy            0                       # Energy for self refresh per rank (pJ)
system.mem_ctrls.dram.rank0.totalEnergy   90532749075                       # Total energy per rank (pJ)
system.mem_ctrls.dram.rank0.averagePower   469.536669                       # Core power per rank (mW)
system.mem_ctrls.dram.rank0.totalIdleTime            0                       # Total Idle time Per DRAM Rank
system.mem_ctrls.dram.rank0.pwrStateTime::IDLE 176745211250                       # Time in different power states
system.mem_ctrls.dram.rank0.pwrStateTime::REF   6438380000                       # Time in different power states
system.mem_ctrls.dram.rank0.pwrStateTime::SREF            0                       # Time in different power states
system.mem_ctrls.dram.rank0.pwrStateTime::PRE_PDN            0                       # Time in different power states
system.mem_ctrls.dram.rank0.pwrStateTime::ACT   9629356250                       # Time in different power states
system.mem_ctrls.dram.rank0.pwrStateTime::ACT_PDN            0                       # Time in different power states
system.mem_ctrls.dram.rank1.actEnergy        20063400                       # Energy for activate commands per rank (pJ)
system.mem_ctrls.dram.rank1.preEnergy        10663950                       # Energy for precharge commands per rank (pJ)
system.mem_ctrls.dram.rank1.readEnergy       60190200                       # Energy for read commands per rank (pJ)
system.mem_ctrls.dram.rank1.writeEnergy      15054480                       # Energy for write commands per rank (pJ)
system.mem_ctrls.dram.rank1.refreshEnergy 15220330320.000002                       # Energy for refresh commands per rank (pJ)
system.mem_ctrls.dram.rank1.actBackEnergy   6424476840                       # Energy for active background per rank (pJ)
system.mem_ctrls.dram.rank1.preBackEnergy  68630086080                       # Energy for precharge background per rank (pJ)
system.mem_ctrls.dram.rank1.actPowerDownEnergy            0                       # Energy for active power-down per rank (pJ)
system.mem_ctrls.dram.rank1.prePowerDownEnergy            0                       # Energy for precharge power-down per rank (pJ)
system.mem_ctrls.dram.rank1.selfRefreshEnergy            0                       # Energy for self refresh per rank (pJ)
system.mem_ctrls.dram.rank1.totalEnergy   90380865270                       # Total energy per rank (pJ)
system.mem_ctrls.dram.rank1.averagePower   468.748943                       # Core power per rank (mW)
system.mem_ctrls.dram.rank1.totalIdleTime            0                       # Total Idle time Per DRAM Rank
system.mem_ctrls.dram.rank1.pwrStateTime::IDLE 178361460500                       # Time in different power states
system.mem_ctrls.dram.rank1.pwrStateTime::REF   6438380000                       # Time in different power states
system.mem_ctrls.dram.rank1.pwrStateTime::SREF            0                       # Time in different power states
system.mem_ctrls.dram.rank1.pwrStateTime::PRE_PDN            0                       # Time in different power states
system.mem_ctrls.dram.rank1.pwrStateTime::ACT   8013107000                       # Time in different power states
system.mem_ctrls.dram.rank1.pwrStateTime::ACT_PDN            0                       # Time in different power states
system.mem_ctrls.power_state.pwrStateResidencyTicks::UNDEFINED 192812947500                       # Cumulative time (in ticks) in various power states
system.membus.trans_dist::ReadResp               5288                       # Transaction distribution
system.membus.trans_dist::WritebackDirty         9472                       # Transaction distribution
system.membus.trans_dist::CleanEvict             2280                       # Transaction distribution
system.membus.trans_dist::ReadExReq             14446                       # Transaction distribution
system.membus.trans_dist::ReadExResp            14446                       # Transaction distribution
system.membus.trans_dist::ReadSharedReq          5288                       # Transaction distribution
system.membus.pkt_count_system.l2.mem_side_port::system.mem_ctrls.port        51220                       # Packet count per connected requestor and responder (bytes)
system.membus.pkt_count_system.l2.mem_side_port::total        51220                       # Packet count per connected requestor and responder (bytes)
system.membus.pkt_count::total                  51220                       # Packet count per connected requestor and responder (bytes)
system.membus.pkt_size_system.l2.mem_side_port::system.mem_ctrls.port       934592                       # Cumulative packet size per connected requestor and responder (bytes)
system.membus.pkt_size_system.l2.mem_side_port::total       934592                       # Cumulative packet size per connected requestor and responder (bytes)
system.membus.pkt_size::total                  934592                       # Cumulative packet size per connected requestor and responder (bytes)
system.membus.snoops                                0                       # Total snoops (count)
system.membus.snoopTraffic                          0                       # Total snoop traffic (bytes)
system.membus.snoop_fanout::samples             19734                       # Request fanout histogram
system.membus.snoop_fanout::mean                    0                       # Request fanout histogram
system.membus.snoop_fanout::stdev                   0                       # Request fanout histogram
system.membus.snoop_fanout::underflows              0      0.00%      0.00% # Request fanout histogram
system.membus.snoop_fanout::0                   19734    100.00%    100.00% # Request fanout histogram
system.membus.snoop_fanout::1                       0      0.00%    100.00% # Request fanout histogram
system.membus.snoop_fanout::overflows               0      0.00%    100.00% # Request fanout histogram
system.membus.snoop_fanout::min_value               0                       # Request fanout histogram
system.membus.snoop_fanout::max_value               0                       # Request fanout histogram
system.membus.snoop_fanout::total               19734                       # Request fanout histogram
system.membus.power_state.pwrStateResidencyTicks::UNDEFINED 192812947500                       # Cumulative time (in ticks) in various power states
system.membus.reqLayer2.occupancy            50761000                       # Layer occupancy (ticks)
system.membus.reqLayer2.utilization               0.0                       # Layer utilization (%)
system.membus.respLayer1.occupancy           65427750                       # Layer occupancy (ticks)
system.membus.respLayer1.utilization              0.0                       # Layer utilization (%)
system.tol2bus.trans_dist::ReadResp             18436                       # Transaction distribution
system.tol2bus.trans_dist::WritebackDirty        67035                       # Transaction distribution
system.tol2bus.trans_dist::WritebackClean          331                       # Transaction distribution
system.tol2bus.trans_dist::CleanEvict           24067                       # Transaction distribution
system.tol2bus.trans_dist::ReadExReq            48652                       # Transaction distribution
system.tol2bus.trans_dist::ReadExResp           48652                       # Transaction distribution
system.tol2bus.trans_dist::ReadCleanReq          2514                       # Transaction distribution
system.tol2bus.trans_dist::ReadSharedReq        15922                       # Transaction distribution
system.tol2bus.pkt_count_system.cpu.icache.mem_side_port::system.l2.cpu_side_port         5359                       # Packet count per connected requestor and responder (bytes)
system.tol2bus.pkt_count_system.cpu.dcache.mem_side_port::system.l2.cpu_side_port       189626                       # Packet count per connected requestor and responder (bytes)
system.tol2bus.pkt_count::total                194985                       # Packet count per connected requestor and responder (bytes)
system.tol2bus.pkt_size_system.cpu.icache.mem_side_port::system.l2.cpu_side_port        91040                       # Cumulative packet size per connected requestor and responder (bytes)
system.tol2bus.pkt_size_system.cpu.dcache.mem_side_port::system.l2.cpu_side_port      3908384                       # Cumulative packet size per connected requestor and responder (bytes)
system.tol2bus.pkt_size::total                3999424                       # Cumulative packet size per connected requestor and responder (bytes)
system.tol2bus.snoops                           30624                       # Total snoops (count)
system.tol2bus.snoopTraffic                    303104                       # Total snoop traffic (bytes)
system.tol2bus.snoop_fanout::samples            97712                       # Request fanout histogram
system.tol2bus.snoop_fanout::mean            0.205942                       # Request fanout histogram
system.tol2bus.snoop_fanout::stdev           0.404390                       # Request fanout histogram
system.tol2bus.snoop_fanout::underflows             0      0.00%      0.00% # Request fanout histogram
system.tol2bus.snoop_fanout::0                  77589     79.41%     79.41% # Request fanout histogram
system.tol2bus.snoop_fanout::1                  20123     20.59%    100.00% # Request fanout histogram
system.tol2bus.snoop_fanout::2                      0      0.00%    100.00% # Request fanout histogram
system.tol2bus.snoop_fanout::3                      0      0.00%    100.00% # Request fanout histogram
system.tol2bus.snoop_fanout::4                      0      0.00%    100.00% # Request fanout histogram
system.tol2bus.snoop_fanout::overflows              0      0.00%    100.00% # Request fanout histogram
system.tol2bus.snoop_fanout::min_value              0                       # Request fanout histogram
system.tol2bus.snoop_fanout::max_value              1                       # Request fanout histogram
system.tol2bus.snoop_fanout::total              97712                       # Request fanout histogram
system.tol2bus.power_state.pwrStateResidencyTicks::UNDEFINED 192812947500                       # Cumulative time (in ticks) in various power states
system.tol2bus.reqLayer0.occupancy           92895500                       # Layer occupancy (ticks)
system.tol2bus.reqLayer0.utilization              0.0                       # Layer utilization (%)
system.tol2bus.respLayer0.occupancy           2514000                       # Layer occupancy (ticks)
system.tol2bus.respLayer0.utilization             0.0                       # Layer utilization (%)
system.tol2bus.respLayer1.occupancy          64574000                       # Layer occupancy (ticks)
system.tol2bus.respLayer1.utilization             0.0                       # Layer utilization (%)
system.voltage_domain.voltage                       1                       # Voltage in Volts

---------- End Simulation Statistics   ----------
