
---------- Begin Simulation Statistics ----------
final_tick                               192822832500                       # Number of ticks from beginning of simulation (restored from checkpoints and never reset)
host_inst_rate                                 853210                       # Simulator instruction rate (inst/s)
host_mem_usage                                 672588                       # Number of bytes of host memory used
host_op_rate                                  1103655                       # Simulator op (including micro ops) rate (op/s)
host_seconds                                   117.20                       # Real time elapsed on the host
host_tick_rate                             1645180595                       # Simulator tick rate (ticks/s)
sim_freq                                 1000000000000                       # Frequency of simulated ticks
sim_insts                                   100000000                       # Number of instructions simulated
sim_ops                                     129353490                       # Number of ops (including micro ops) simulated
sim_seconds                                  0.192823                       # Number of seconds simulated
sim_ticks                                192822832500                       # Number of ticks simulated
system.cpu.Branches                           5555718                       # Number of branches fetched
system.cpu.committedInsts                   100000000                       # Number of instructions committed
system.cpu.committedOps                     129353490                       # Number of ops (including micro ops) committed
system.cpu.idle_fraction                            0                       # Percentage of idle cycles
system.cpu.not_idle_fraction                        1                       # Percentage of non-idle cycles
system.cpu.numCycles                        385645665                       # number of cpu cycles simulated
system.cpu.numWorkItemsCompleted                    0                       # number of work items this cpu completed
system.cpu.numWorkItemsStarted                      0                       # number of work items this cpu started
system.cpu.num_busy_cycles                  385645665                       # Number of busy cycles
system.cpu.num_cc_register_reads             37536336                       # number of times the CC registers were read
system.cpu.num_cc_register_writes            52077182                       # number of times the CC registers were written
system.cpu.num_conditional_control_insts      5078798                       # number of instructions that are conditional controls
system.cpu.num_fp_alu_accesses                5734498                       # Number of float alu accesses
system.cpu.num_fp_insts                       5734498                       # number of float instructions
system.cpu.num_fp_register_reads              4648737                       # number of times the floating registers were read
system.cpu.num_fp_register_writes             4867956                       # number of times the floating registers were written
system.cpu.num_func_calls                      317051                       # number of times a function call or return occured
system.cpu.num_idle_cycles                          0                       # Number of idle cycles
system.cpu.num_int_alu_accesses             125241022                       # Number of integer alu accesses
system.cpu.num_int_insts                    125241022                       # number of integer instructions
system.cpu.num_int_register_reads           293410038                       # number of times the integer registers were read
system.cpu.num_int_register_writes          113873586                       # number of times the integer registers were written
system.cpu.num_load_insts                    43555354                       # Number of load instructions
system.cpu.num_mem_refs                      50714744                       # number of memory refs
system.cpu.num_store_insts                    7159390                       # Number of store instructions
system.cpu.num_vec_alu_accesses                     0                       # Number of vector alu accesses
system.cpu.num_vec_insts                            0                       # number of vector instructions
system.cpu.num_vec_register_reads                   0                       # number of times the vector registers were read
system.cpu.num_vec_register_writes                  0                       # number of times the vector registers were written
system.cpu.op_class::No_OpClass                550507      0.43%      0.43% # Class of executed instruction
system.cpu.op_class::IntAlu                  73097378     56.50%     56.92% # Class of executed instruction
system.cpu.op_class::IntMult                   132844      0.10%     57.02% # Class of executed instruction
system.cpu.op_class::IntDiv                   1253858      0.97%     57.99% # Class of executed instruction
system.cpu.op_class::FloatAdd                 1903691      1.47%     59.46% # Class of executed instruction
system.cpu.op_class::FloatCmp                       0      0.00%     59.46% # Class of executed instruction
system.cpu.op_class::FloatCvt                       0      0.00%     59.46% # Class of executed instruction
system.cpu.op_class::FloatMult                      0      0.00%     59.46% # Class of executed instruction
system.cpu.op_class::FloatMultAcc                   0      0.00%     59.46% # Class of executed instruction
system.cpu.op_class::FloatDiv                       0      0.00%     59.46% # Class of executed instruction
system.cpu.op_class::FloatMisc                      0      0.00%     59.46% # Class of executed instruction
system.cpu.op_class::FloatSqrt                      0      0.00%     59.46% # Class of executed instruction
system.cpu.op_class::SimdAdd                      494      0.00%     59.47% # Class of executed instruction
system.cpu.op_class::SimdAddAcc                     0      0.00%     59.47% # Class of executed instruction
system.cpu.op_class::SimdAlu                   218994      0.17%     59.63% # Class of executed instruction
system.cpu.op_class::SimdCmp                      180      0.00%     59.63% # Class of executed instruction
system.cpu.op_class::SimdCvt                   180632      0.14%     59.77% # Class of executed instruction
system.cpu.op_class::SimdMisc                  402789      0.31%     60.09% # Class of executed instruction
system.cpu.op_class::SimdMult                       0      0.00%     60.09% # Class of executed instruction
system.cpu.op_class::SimdMultAcc                    0      0.00%     60.09% # Class of executed instruction
system.cpu.op_class::SimdShift                     34      0.00%     60.09% # Class of executed instruction
system.cpu.op_class::SimdShiftAcc                   0      0.00%     60.09% # Class of executed instruction
system.cpu.op_class::SimdDiv                        0      0.00%     60.09% # Class of executed instruction
system.cpu.op_class::SimdSqrt                       0      0.00%     60.09% # Class of executed instruction
system.cpu.op_class::SimdFloatAdd              322927      0.25%     60.34% # Class of executed instruction
system.cpu.op_class::SimdFloatAlu                   0      0.00%     60.34% # Class of executed instruction
system.cpu.op_class::SimdFloatCmp                   0      0.00%     60.34% # Class of executed instruction
system.cpu.op_class::SimdFloatCvt              493438      0.38%     60.72% # Class of executed instruction
system.cpu.op_class::SimdFloatDiv               62796      0.05%     60.77% # Class of executed instruction
system.cpu.op_class::SimdFloatMisc                  0      0.00%     60.77% # Class of executed instruction
system.cpu.op_class::SimdFloatMult              49007      0.04%     60.80% # Class of executed instruction
system.cpu.op_class::SimdFloatMultAcc               0      0.00%     60.80% # Class of executed instruction
system.cpu.op_class::SimdFloatSqrt                  0      0.00%     60.80% # Class of executed instruction
system.cpu.op_class::SimdReduceAdd                  0      0.00%     60.80% # Class of executed instruction
system.cpu.op_class::SimdReduceAlu                  0      0.00%     60.80% # Class of executed instruction
system.cpu.op_class::SimdReduceCmp                  0      0.00%     60.80% # Class of executed instruction
system.cpu.op_class::SimdFloatReduceAdd             0      0.00%     60.80% # Class of executed instruction
system.cpu.op_class::SimdFloatReduceCmp             0      0.00%     60.80% # Class of executed instruction
system.cpu.op_class::SimdAes                        0      0.00%     60.80% # Class of executed instruction
system.cpu.op_class::SimdAesMix                     0      0.00%     60.80% # Class of executed instruction
system.cpu.op_class::SimdSha1Hash                   0      0.00%     60.80% # Class of executed instruction
system.cpu.op_class::SimdSha1Hash2                  0      0.00%     60.80% # Class of executed instruction
system.cpu.op_class::SimdSha256Hash                 0      0.00%     60.80% # Class of executed instruction
system.cpu.op_class::SimdSha256Hash2                0      0.00%     60.80% # Class of executed instruction
system.cpu.op_class::SimdShaSigma2                  0      0.00%     60.80% # Class of executed instruction
system.cpu.op_class::SimdShaSigma3                  0      0.00%     60.80% # Class of executed instruction
system.cpu.op_class::SimdPredAlu                    0      0.00%     60.80% # Class of executed instruction
system.cpu.op_class::MemRead                 42068750     32.51%     93.32% # Class of executed instruction
system.cpu.op_class::MemWrite                 6726912      5.20%     98.52% # Class of executed instruction
system.cpu.op_class::FloatMemRead             1486604      1.15%     99.67% # Class of executed instruction
system.cpu.op_class::FloatMemWrite             432478      0.33%    100.00% # Class of executed instruction
system.cpu.op_class::IprAccess                      0      0.00%    100.00% # Class of executed instruction
system.cpu.op_class::InstPrefetch                   0      0.00%    100.00% # Class of executed instruction
system.cpu.op_class::total                  129384313                       # Class of executed instruction
system.cpu.workload.numSyscalls                    35                       # Number of system calls
system.membus.snoop_filter.hit_multi_requests            0                       # Number of requests hitting in the snoop filter with multiple (>1) holders of the requested data.
system.membus.snoop_filter.hit_multi_snoops            0                       # Number of snoops hitting in the snoop filter with multiple (>1) holders of the requested data.
system.membus.snoop_filter.hit_single_requests        11812                       # Number of requests hitting in the snoop filter with a single holder of the requested data.
system.membus.snoop_filter.hit_single_snoops            0                       # Number of snoops hitting in the snoop filter with a single holder of the requested data.
system.membus.snoop_filter.tot_requests         31665                       # Total number of requests made to the snoop filter.
system.membus.snoop_filter.tot_snoops               0                       # Total number of snoops made to the snoop filter.
system.tol2bus.snoop_filter.hit_multi_requests            0                       # Number of requests hitting in the snoop filter with multiple (>1) holders of the requested data.
system.tol2bus.snoop_filter.hit_multi_snoops            0                       # Number of snoops hitting in the snoop filter with multiple (>1) holders of the requested data.
system.tol2bus.snoop_filter.hit_single_requests        60809                       # Number of requests hitting in the snoop filter with a single holder of the requested data.
system.tol2bus.snoop_filter.hit_single_snoops        22149                       # Number of snoops hitting in the snoop filter with a single holder of the requested data.
system.tol2bus.snoop_filter.tot_requests       127897                       # Total number of requests made to the snoop filter.
system.tol2bus.snoop_filter.tot_snoops          22149                       # Total number of snoops made to the snoop filter.
system.clk_domain.clock                          1000                       # Clock period in ticks
system.cpu.dcache.demand_hits::.cpu.data     50911213                       # number of demand (read+write) hits
system.cpu.dcache.demand_hits::total         50911213                       # number of demand (read+write) hits
system.cpu.dcache.overall_hits::.cpu.data     50923378                       # number of overall hits
system.cpu.dcache.overall_hits::total        50923378                       # number of overall hits
system.cpu.dcache.demand_misses::.cpu.data        61446                       # number of demand (read+write) misses
system.cpu.dcache.demand_misses::total          61446                       # number of demand (read+write) misses
system.cpu.dcache.overall_misses::.cpu.data        64635                       # number of overall misses
system.cpu.dcache.overall_misses::total         64635                       # number of overall misses
system.cpu.dcache.demand_miss_latency::.cpu.data   1939166000                       # number of demand (read+write) miss cycles
system.cpu.dcache.demand_miss_latency::total   1939166000                       # number of demand (read+write) miss cycles
system.cpu.dcache.overall_miss_latency::.cpu.data   1939166000                       # number of overall miss cycles
system.cpu.dcache.overall_miss_latency::total   1939166000                       # number of overall miss cycles
system.cpu.dcache.demand_accesses::.cpu.data     50972659                       # number of demand (read+write) accesses
system.cpu.dcache.demand_accesses::total     50972659                       # number of demand (read+write) accesses
system.cpu.dcache.overall_accesses::.cpu.data     50988013                       # number of overall (read+write) accesses
system.cpu.dcache.overall_accesses::total     50988013                       # number of overall (read+write) accesses
system.cpu.dcache.demand_miss_rate::.cpu.data     0.001205                       # miss rate for demand accesses
system.cpu.dcache.demand_miss_rate::total     0.001205                       # miss rate for demand accesses
system.cpu.dcache.overall_miss_rate::.cpu.data     0.001268                       # miss rate for overall accesses
system.cpu.dcache.overall_miss_rate::total     0.001268                       # miss rate for overall accesses
system.cpu.dcache.demand_avg_miss_latency::.cpu.data 31558.864694                       # average overall miss latency
system.cpu.dcache.demand_avg_miss_latency::total 31558.864694                       # average overall miss latency
system.cpu.dcache.overall_avg_miss_latency::.cpu.data 30001.794693                       # average overall miss latency
system.cpu.dcache.overall_avg_miss_latency::total 30001.794693                       # average overall miss latency
system.cpu.dcache.blocked_cycles::no_mshrs            0                       # number of cycles access was blocked
system.cpu.dcache.blocked_cycles::no_targets            0                       # number of cycles access was blocked
system.cpu.dcache.blocked::no_mshrs                 0                       # number of cycles access was blocked
system.cpu.dcache.blocked::no_targets               0                       # number of cycles access was blocked
system.cpu.dcache.avg_blocked_cycles::no_mshrs          nan                       # average number of cycles each access was blocked
system.cpu.dcache.avg_blocked_cycles::no_targets          nan                       # average number of cycles each access was blocked
system.cpu.dcache.writebacks::.writebacks        57379                       # number of writebacks
system.cpu.dcache.writebacks::total             57379                       # number of writebacks
system.cpu.dcache.demand_mshr_misses::.cpu.data        61446                       # number of demand (read+write) MSHR misses
system.cpu.dcache.demand_mshr_misses::total        61446                       # number of demand (read+write) MSHR misses
system.cpu.dcache.overall_mshr_misses::.cpu.data        64574                       # number of overall MSHR misses
system.cpu.dcache.overall_mshr_misses::total        64574                       # number of overall MSHR misses
system.cpu.dcache.demand_mshr_miss_latency::.cpu.data   1877720000                       # number of demand (read+write) MSHR miss cycles
system.cpu.dcache.demand_mshr_miss_latency::total   1877720000                       # number of demand (read+write) MSHR miss cycles
system.cpu.dcache.overall_mshr_miss_latency::.cpu.data   1960102000                       # number of overall MSHR miss cycles
system.cpu.dcache.overall_mshr_miss_latency::total   1960102000                       # number of overall MSHR miss cycles
system.cpu.dcache.demand_mshr_miss_rate::.cpu.data     0.001205                       # mshr miss rate for demand accesses
system.cpu.dcache.demand_mshr_miss_rate::total     0.001205                       # mshr miss rate for demand accesses
system.cpu.dcache.overall_mshr_miss_rate::.cpu.data     0.001266                       # mshr miss rate for overall accesses
system.cpu.dcache.overall_mshr_miss_rate::total     0.001266                       # mshr miss rate for overall accesses
system.cpu.dcache.demand_avg_mshr_miss_latency::.cpu.data 30558.864694                       # average overall mshr miss latency
system.cpu.dcache.demand_avg_mshr_miss_latency::total 30558.864694                       # average overall mshr miss latency
system.cpu.dcache.overall_avg_mshr_miss_latency::.cpu.data 30354.353145                       # average overall mshr miss latency
system.cpu.dcache.overall_avg_mshr_miss_latency::total 30354.353145                       # average overall mshr miss latency
system.cpu.dcache.replacements                  60478                       # number of replacements
system.cpu.dcache.ReadReq_hits::.cpu.data     43831187                       # number of ReadReq hits
system.cpu.dcache.ReadReq_hits::total        43831187                       # number of ReadReq hits
system.cpu.dcache.ReadReq_misses::.cpu.data        12794                       # number of ReadReq misses
system.cpu.dcache.ReadReq_misses::total         12794                       # number of ReadReq misses
system.cpu.dcache.ReadReq_miss_latency::.cpu.data    317222000                       # number of ReadReq miss cycles
system.cpu.dcache.ReadReq_miss_latency::total    317222000                       # number of ReadReq miss cycles
system.cpu.dcache.ReadReq_accesses::.cpu.data     43843981                       # number of ReadReq accesses(hits+misses)
system.cpu.dcache.ReadReq_accesses::total     43843981                       # number of ReadReq accesses(hits+misses)
system.cpu.dcache.ReadReq_miss_rate::.cpu.data     0.000292                       # miss rate for ReadReq accesses
system.cpu.dcache.ReadReq_miss_rate::total     0.000292                       # miss rate for ReadReq accesses
system.cpu.dcache.ReadReq_avg_miss_latency::.cpu.data 24794.591215                       # average ReadReq miss latency
system.cpu.dcache.ReadReq_avg_miss_latency::total 24794.591215                       # average ReadReq miss latency
system.cpu.dcache.ReadReq_mshr_misses::.cpu.data        12794                       # number of ReadReq MSHR misses
system.cpu.dcache.ReadReq_mshr_misses::total        12794                       # number of ReadReq MSHR misses
system.cpu.dcache.ReadReq_mshr_miss_latency::.cpu.data    304428000                       # number of ReadReq MSHR miss cycles
system.cpu.dcache.ReadReq_mshr_miss_latency::total    304428000                       # number of ReadReq MSHR miss cycles
system.cpu.dcache.ReadReq_mshr_miss_rate::.cpu.data     0.000292                       # mshr miss rate for ReadReq accesses
system.cpu.dcache.ReadReq_mshr_miss_rate::total     0.000292                       # mshr miss rate for ReadReq accesses
system.cpu.dcache.ReadReq_avg_mshr_miss_latency::.cpu.data 23794.591215                       # average ReadReq mshr miss latency
system.cpu.dcache.ReadReq_avg_mshr_miss_latency::total 23794.591215                       # average ReadReq mshr miss latency
system.cpu.dcache.WriteReq_hits::.cpu.data      7080026                       # number of WriteReq hits
system.cpu.dcache.WriteReq_hits::total        7080026                       # number of WriteReq hits
system.cpu.dcache.WriteReq_misses::.cpu.data        48652                       # number of WriteReq misses
system.cpu.dcache.WriteReq_misses::total        48652                       # number of WriteReq misses
system.cpu.dcache.WriteReq_miss_latency::.cpu.data   1621944000                       # number of WriteReq miss cycles
system.cpu.dcache.WriteReq_miss_latency::total   1621944000                       # number of WriteReq miss cycles
system.cpu.dcache.WriteReq_accesses::.cpu.data      7128678                       # number of WriteReq accesses(hits+misses)
system.cpu.dcache.WriteReq_accesses::total      7128678                       # number of WriteReq accesses(hits+misses)
system.cpu.dcache.WriteReq_miss_rate::.cpu.data     0.006825                       # miss rate for WriteReq accesses
system.cpu.dcache.WriteReq_miss_rate::total     0.006825                       # miss rate for WriteReq accesses
system.cpu.dcache.WriteReq_avg_miss_latency::.cpu.data 33337.663405                       # average WriteReq miss latency
system.cpu.dcache.WriteReq_avg_miss_latency::total 33337.663405                       # average WriteReq miss latency
system.cpu.dcache.WriteReq_mshr_misses::.cpu.data        48652                       # number of WriteReq MSHR misses
system.cpu.dcache.WriteReq_mshr_misses::total        48652                       # number of WriteReq MSHR misses
system.cpu.dcache.WriteReq_mshr_miss_latency::.cpu.data   1573292000                       # number of WriteReq MSHR miss cycles
system.cpu.dcache.WriteReq_mshr_miss_latency::total   1573292000                       # number of WriteReq MSHR miss cycles
system.cpu.dcache.WriteReq_mshr_miss_rate::.cpu.data     0.006825                       # mshr miss rate for WriteReq accesses
system.cpu.dcache.WriteReq_mshr_miss_rate::total     0.006825                       # mshr miss rate for WriteReq accesses
system.cpu.dcache.WriteReq_avg_mshr_miss_latency::.cpu.data 32337.663405                       # average WriteReq mshr miss latency
system.cpu.dcache.WriteReq_avg_mshr_miss_latency::total 32337.663405                       # average WriteReq mshr miss latency
system.cpu.dcache.SoftPFReq_hits::.cpu.data        12165                       # number of SoftPFReq hits
system.cpu.dcache.SoftPFReq_hits::total         12165                       # number of SoftPFReq hits
system.cpu.dcache.SoftPFReq_misses::.cpu.data         3189                       # number of SoftPFReq misses
system.cpu.dcache.SoftPFReq_misses::total         3189                       # number of SoftPFReq misses
system.cpu.dcache.SoftPFReq_accesses::.cpu.data        15354                       # number of SoftPFReq accesses(hits+misses)
system.cpu.dcache.SoftPFReq_accesses::total        15354                       # number of SoftPFReq accesses(hits+misses)
system.cpu.dcache.SoftPFReq_miss_rate::.cpu.data     0.207698                       # miss rate for SoftPFReq accesses
system.cpu.dcache.SoftPFReq_miss_rate::total     0.207698                       # miss rate for SoftPFReq accesses
system.cpu.dcache.SoftPFReq_mshr_misses::.cpu.data         3128                       # number of SoftPFReq MSHR misses
system.cpu.dcache.SoftPFReq_mshr_misses::total         3128                       # number of SoftPFReq MSHR misses
system.cpu.dcache.SoftPFReq_mshr_miss_latency::.cpu.data     82382000                       # number of SoftPFReq MSHR miss cycles
system.cpu.dcache.SoftPFReq_mshr_miss_latency::total     82382000                       # number of SoftPFReq MSHR miss cycles
system.cpu.dcache.SoftPFReq_mshr_miss_rate::.cpu.data     0.203725                       # mshr miss rate for SoftPFReq accesses
system.cpu.dcache.SoftPFReq_mshr_miss_rate::total     0.203725                       # mshr miss rate for SoftPFReq accesses
system.cpu.dcache.SoftPFReq_avg_mshr_miss_latency::.cpu.data 26336.956522                       # average SoftPFReq mshr miss latency
system.cpu.dcache.SoftPFReq_avg_mshr_miss_latency::total 26336.956522                       # average SoftPFReq mshr miss latency
system.cpu.dcache.power_state.pwrStateResidencyTicks::UNDEFINED 192822832500                       # Cumulative time (in ticks) in various power states
system.cpu.dcache.tags.tagsinuse          4042.936839                       # Cycle average of tags in use
system.cpu.dcache.tags.total_refs            50987952                       # Total number of references to valid blocks.
system.cpu.dcache.tags.sampled_refs             64574                       # Sample count of references to valid blocks.
system.cpu.dcache.tags.avg_refs            789.604980                       # Average number of references to valid blocks.
system.cpu.dcache.tags.warmup_cycle            177500                       # Cycle when the warmup percentage was hit.
system.cpu.dcache.tags.occ_blocks::.cpu.data  4042.936839                       # Average occupied blocks per requestor
system.cpu.dcache.tags.occ_percent::.cpu.data     0.987045                       # Average percentage of cache occupancy
system.cpu.dcache.tags.occ_percent::total     0.987045                       # Average percentage of cache occupancy
system.cpu.dcache.tags.occ_task_id_blocks::1024         4096                       # Occupied blocks per task id
system.cpu.dcache.tags.age_task_id_blocks_1024::1            1                       # Occupied blocks per task id
system.cpu.dcache.tags.age_task_id_blocks_1024::2           38                       # Occupied blocks per task id
system.cpu.dcache.tags.age_task_id_blocks_1024::3          676                       # Occupied blocks per task id
system.cpu.dcache.tags.age_task_id_blocks_1024::4         3381                       # Occupied blocks per task id
system.cpu.dcache.tags.occ_task_id_percent::1024            1                       # Percentage of cache occupancy per task id
system.cpu.dcache.tags.tag_accesses         102040600                       # Number of tag accesses
system.cpu.dcache.tags.data_accesses        102040600                       # Number of data accesses
system.cpu.dcache.tags.power_state.pwrStateResidencyTicks::UNDEFINED 192822832500                       # Cumulative time (in ticks) in various power states
system.cpu.dtb.rdAccesses                    43859336                       # TLB accesses on read requests
system.cpu.dtb.wrAccesses                     7159465                       # TLB accesses on write requests
system.cpu.dtb.rdMisses                           114                       # TLB misses on read requests
system.cpu.dtb.wrMisses                           271                       # TLB misses on write requests
system.cpu.dtb.walker.power_state.pwrStateResidencyTicks::UNDEFINED 192822832500                       # Cumulative time (in ticks) in various power states
system.cpu.dtb_walker_cache.blocked_cycles::no_mshrs            0                       # number of cycles access was blocked
system.cpu.dtb_walker_cache.blocked_cycles::no_targets            0                       # number of cycles access was blocked
system.cpu.dtb_walker_cache.blocked::no_mshrs            0                       # number of cycles access was blocked
system.cpu.dtb_walker_cache.blocked::no_targets            0                       # number of cycles access was blocked
system.cpu.dtb_walker_cache.avg_blocked_cycles::no_mshrs          nan                       # average number of cycles each access was blocked
system.cpu.dtb_walker_cache.avg_blocked_cycles::no_targets          nan                       # average number of cycles each access was blocked
system.cpu.dtb_walker_cache.replacements            0                       # number of replacements
system.cpu.dtb_walker_cache.power_state.pwrStateResidencyTicks::UNDEFINED 192822832500                       # Cumulative time (in ticks) in various power states
system.cpu.dtb_walker_cache.tags.tagsinuse            0                       # Cycle average of tags in use
system.cpu.dtb_walker_cache.tags.total_refs            0                       # Total number of references to valid blocks.
system.cpu.dtb_walker_cache.tags.sampled_refs            0                       # Sample count of references to valid blocks.
system.cpu.dtb_walker_cache.tags.avg_refs          nan                       # Average number of references to valid blocks.
system.cpu.dtb_walker_cache.tags.warmup_cycle            0                       # Cycle when the warmup percentage was hit.
system.cpu.dtb_walker_cache.tags.tag_accesses            0                       # Number of tag accesses
system.cpu.dtb_walker_cache.tags.data_accesses            0                       # Number of data accesses
system.cpu.dtb_walker_cache.tags.power_state.pwrStateResidencyTicks::UNDEFINED 192822832500                       # Cumulative time (in ticks) in various power states
system.cpu.icache.demand_hits::.cpu.inst    139916546                       # number of demand (read+write) hits
system.cpu.icache.demand_hits::total        139916546                       # number of demand (read+write) hits
system.cpu.icache.overall_hits::.cpu.inst    139916546                       # number of overall hits
system.cpu.icache.overall_hits::total       139916546                       # number of overall hits
system.cpu.icache.demand_misses::.cpu.inst         2514                       # number of demand (read+write) misses
system.cpu.icache.demand_misses::total           2514                       # number of demand (read+write) misses
system.cpu.icache.overall_misses::.cpu.inst         2514                       # number of overall misses
system.cpu.icache.overall_misses::total          2514                       # number of overall misses
system.cpu.icache.demand_miss_latency::.cpu.inst    192596000                       # number of demand (read+write) miss cycles
system.cpu.icache.demand_miss_latency::total    192596000                       # number of demand (read+write) miss cycles
system.cpu.icache.overall_miss_latency::.cpu.inst    192596000                       # number of overall miss cycles
system.cpu.icache.overall_miss_latency::total    192596000                       # number of overall miss cycles
system.cpu.icache.demand_accesses::.cpu.inst    139919060                       # number of demand (read+write) accesses
system.cpu.icache.demand_accesses::total    139919060                       # number of demand (read+write) accesses
system.cpu.icache.overall_accesses::.cpu.inst    139919060                       # number of overall (read+write) accesses
system.cpu.icache.overall_accesses::total    139919060                       # number of overall (read+write) accesses
system.cpu.icache.demand_miss_rate::.cpu.inst     0.000018                       # miss rate for demand accesses
system.cpu.icache.demand_miss_rate::total     0.000018                       # miss rate for demand accesses
system.cpu.icache.overall_miss_rate::.cpu.inst     0.000018                       # miss rate for overall accesses
system.cpu.icache.overall_miss_rate::total     0.000018                       # miss rate for overall accesses
system.cpu.icache.demand_avg_miss_latency::.cpu.inst 76609.387430                       # average overall miss latency
system.cpu.icache.demand_avg_miss_latency::total 76609.387430                       # average overall miss latency
system.cpu.icache.overall_avg_miss_latency::.cpu.inst 76609.387430                       # average overall miss latency
system.cpu.icache.overall_avg_miss_latency::total 76609.387430                       # average overall miss latency
system.cpu.icache.blocked_cycles::no_mshrs            0                       # number of cycles access was blocked
system.cpu.icache.blocked_cycles::no_targets            0                       # number of cycles access was blocked
system.cpu.icache.blocked::no_mshrs                 0                       # number of cycles access was blocked
system.cpu.icache.blocked::no_targets               0                       # number of cycles access was blocked
system.cpu.icache.avg_blocked_cycles::no_mshrs          nan                       # average number of cycles each access was blocked
system.cpu.icache.avg_blocked_cycles::no_targets          nan                       # average number of cycles each access was blocked
system.cpu.icache.writebacks::.writebacks          331                       # number of writebacks
system.cpu.icache.writebacks::total               331                       # number of writebacks
system.cpu.icache.demand_mshr_misses::.cpu.inst         2514                       # number of demand (read+write) MSHR misses
system.cpu.icache.demand_mshr_misses::total         2514                       # number of demand (read+write) MSHR misses
system.cpu.icache.overall_mshr_misses::.cpu.inst         2514                       # number of overall MSHR misses
system.cpu.icache.overall_mshr_misses::total         2514                       # number of overall MSHR misses
system.cpu.icache.demand_mshr_miss_latency::.cpu.inst    190082000                       # number of demand (read+write) MSHR miss cycles
system.cpu.icache.demand_mshr_miss_latency::total    190082000                       # number of demand (read+write) MSHR miss cycles
system.cpu.icache.overall_mshr_miss_latency::.cpu.inst    190082000                       # number of overall MSHR miss cycles
system.cpu.icache.overall_mshr_miss_latency::total    190082000                       # number of overall MSHR miss cycles
system.cpu.icache.demand_mshr_miss_rate::.cpu.inst     0.000018                       # mshr miss rate for demand accesses
system.cpu.icache.demand_mshr_miss_rate::total     0.000018                       # mshr miss rate for demand accesses
system.cpu.icache.overall_mshr_miss_rate::.cpu.inst     0.000018                       # mshr miss rate for overall accesses
system.cpu.icache.overall_mshr_miss_rate::total     0.000018                       # mshr miss rate for overall accesses
system.cpu.icache.demand_avg_mshr_miss_latency::.cpu.inst 75609.387430                       # average overall mshr miss latency
system.cpu.icache.demand_avg_mshr_miss_latency::total 75609.387430                       # average overall mshr miss latency
system.cpu.icache.overall_avg_mshr_miss_latency::.cpu.inst 75609.387430                       # average overall mshr miss latency
system.cpu.icache.overall_avg_mshr_miss_latency::total 75609.387430                       # average overall mshr miss latency
system.cpu.icache.replacements                    331                       # number of replacements
system.cpu.icache.ReadReq_hits::.cpu.inst    139916546                       # number of ReadReq hits
system.cpu.icache.ReadReq_hits::total       139916546                       # number of ReadReq hits
system.cpu.icache.ReadReq_misses::.cpu.inst         2514                       # number of ReadReq misses
system.cpu.icache.ReadReq_misses::total          2514                       # number of ReadReq misses
system.cpu.icache.ReadReq_miss_latency::.cpu.inst    192596000                       # number of ReadReq miss cycles
system.cpu.icache.ReadReq_miss_latency::total    192596000                       # number of ReadReq miss cycles
system.cpu.icache.ReadReq_accesses::.cpu.inst    139919060                       # number of ReadReq accesses(hits+misses)
system.cpu.icache.ReadReq_accesses::total    139919060                       # number of ReadReq accesses(hits+misses)
system.cpu.icache.ReadReq_miss_rate::.cpu.inst     0.000018                       # miss rate for ReadReq accesses
system.cpu.icache.ReadReq_miss_rate::total     0.000018                       # miss rate for ReadReq accesses
system.cpu.icache.ReadReq_avg_miss_latency::.cpu.inst 76609.387430                       # average ReadReq miss latency
system.cpu.icache.ReadReq_avg_miss_latency::total 76609.387430                       # average ReadReq miss latency
system.cpu.icache.ReadReq_mshr_misses::.cpu.inst         2514                       # number of ReadReq MSHR misses
system.cpu.icache.ReadReq_mshr_misses::total         2514                       # number of ReadReq MSHR misses
system.cpu.icache.ReadReq_mshr_miss_latency::.cpu.inst    190082000                       # number of ReadReq MSHR miss cycles
system.cpu.icache.ReadReq_mshr_miss_latency::total    190082000                       # number of ReadReq MSHR miss cycles
system.cpu.icache.ReadReq_mshr_miss_rate::.cpu.inst     0.000018                       # mshr miss rate for ReadReq accesses
system.cpu.icache.ReadReq_mshr_miss_rate::total     0.000018                       # mshr miss rate for ReadReq accesses
system.cpu.icache.ReadReq_avg_mshr_miss_latency::.cpu.inst 75609.387430                       # average ReadReq mshr miss latency
system.cpu.icache.ReadReq_avg_mshr_miss_latency::total 75609.387430                       # average ReadReq mshr miss latency
system.cpu.icache.power_state.pwrStateResidencyTicks::UNDEFINED 192822832500                       # Cumulative time (in ticks) in various power states
system.cpu.icache.tags.tagsinuse          2164.092732                       # Cycle average of tags in use
system.cpu.icache.tags.total_refs           139919060                       # Total number of references to valid blocks.
system.cpu.icache.tags.sampled_refs              2514                       # Sample count of references to valid blocks.
system.cpu.icache.tags.avg_refs          55655.950676                       # Average number of references to valid blocks.
system.cpu.icache.tags.warmup_cycle             87500                       # Cycle when the warmup percentage was hit.
system.cpu.icache.tags.occ_blocks::.cpu.inst  2164.092732                       # Average occupied blocks per requestor
system.cpu.icache.tags.occ_percent::.cpu.inst     0.528343                       # Average percentage of cache occupancy
system.cpu.icache.tags.occ_percent::total     0.528343                       # Average percentage of cache occupancy
system.cpu.icache.tags.occ_task_id_blocks::1024         2183                       # Occupied blocks per task id
system.cpu.icache.tags.age_task_id_blocks_1024::4         2183                       # Occupied blocks per task id
system.cpu.icache.tags.occ_task_id_percent::1024     0.532959                       # Percentage of cache occupancy per task id
system.cpu.icache.tags.tag_accesses         279840634                       # Number of tag accesses
system.cpu.icache.tags.data_accesses        279840634                       # Number of data accesses
system.cpu.icache.tags.power_state.pwrStateResidencyTicks::UNDEFINED 192822832500                       # Cumulative time (in ticks) in various power states
system.cpu.interrupts.clk_domain.clock           8000                       # Clock period in ticks
system.cpu.itb.rdAccesses                           0                       # TLB accesses on read requests
system.cpu.itb.wrAccesses                   139919060                       # TLB accesses on write requests
system.cpu.itb.rdMisses                             0                       # TLB misses on read requests
system.cpu.itb.wrMisses                           106                       # TLB misses on write requests
system.cpu.itb.walker.power_state.pwrStateResidencyTicks::UNDEFINED 192822832500                       # Cumulative time (in ticks) in various power states
system.cpu.itb_walker_cache.blocked_cycles::no_mshrs            0                       # number of cycles access was blocked
system.cpu.itb_walker_cache.blocked_cycles::no_targets            0                       # number of cycles access was blocked
system.cpu.itb_walker_cache.blocked::no_mshrs            0                       # number of cycles access was blocked
system.cpu.itb_walker_cache.blocked::no_targets            0                       # number of cycles access was blocked
system.cpu.itb_walker_cache.avg_blocked_cycles::no_mshrs          nan                       # average number of cycles each access was blocked
system.cpu.itb_walker_cache.avg_blocked_cycles::no_targets          nan                       # average number of cycles each access was blocked
system.cpu.itb_walker_cache.replacements            0                       # number of replacements
system.cpu.itb_walker_cache.power_state.pwrStateResidencyTicks::UNDEFINED 192822832500                       # Cumulative time (in ticks) in various power states
system.cpu.itb_walker_cache.tags.tagsinuse            0                       # Cycle average of tags in use
system.cpu.itb_walker_cache.tags.total_refs            0                       # Total number of references to valid blocks.
system.cpu.itb_walker_cache.tags.sampled_refs            0                       # Sample count of references to valid blocks.
system.cpu.itb_walker_cache.tags.avg_refs          nan                       # Average number of references to valid blocks.
system.cpu.itb_walker_cache.tags.warmup_cycle            0                       # Cycle when the warmup percentage was hit.
system.cpu.itb_walker_cache.tags.tag_accesses            0                       # Number of tag accesses
system.cpu.itb_walker_cache.tags.data_accesses            0                       # Number of data accesses
system.cpu.itb_walker_cache.tags.power_state.pwrStateResidencyTicks::UNDEFINED 192822832500                       # Cumulative time (in ticks) in various power states
system.cpu.power_state.pwrStateResidencyTicks::ON 192822832500                       # Cumulative time (in ticks) in various power states
system.cpu.thread_0.numInsts                        0                       # Number of Instructions committed
system.cpu.thread_0.numOps                          0                       # Number of Ops committed
system.cpu.thread_0.numMemRefs                      0                       # Number of Memory References
system.cpu_clk_domain.clock                       500                       # Clock period in ticks
system.cpu_voltage_domain.voltage                   1                       # Voltage in Volts
system.l2.demand_hits::.cpu.inst                   24                       # number of demand (read+write) hits
system.l2.demand_hits::.cpu.data                47211                       # number of demand (read+write) hits
system.l2.demand_hits::total                    47235                       # number of demand (read+write) hits
system.l2.overall_hits::.cpu.inst                  24                       # number of overall hits
system.l2.overall_hits::.cpu.data               47211                       # number of overall hits
system.l2.overall_hits::total                   47235                       # number of overall hits
system.l2.demand_misses::.cpu.inst               2490                       # number of demand (read+write) misses
system.l2.demand_misses::.cpu.data              17363                       # number of demand (read+write) misses
system.l2.demand_misses::total                  19853                       # number of demand (read+write) misses
system.l2.overall_misses::.cpu.inst              2490                       # number of overall misses
system.l2.overall_misses::.cpu.data             17363                       # number of overall misses
system.l2.overall_misses::total                 19853                       # number of overall misses
system.l2.demand_miss_latency::.cpu.inst    186059000                       # number of demand (read+write) miss cycles
system.l2.demand_miss_latency::.cpu.data   1367525500                       # number of demand (read+write) miss cycles
system.l2.demand_miss_latency::total       1553584500                       # number of demand (read+write) miss cycles
system.l2.overall_miss_latency::.cpu.inst    186059000                       # number of overall miss cycles
system.l2.overall_miss_latency::.cpu.data   1367525500                       # number of overall miss cycles
system.l2.overall_miss_latency::total      1553584500                       # number of overall miss cycles
system.l2.demand_accesses::.cpu.inst             2514                       # number of demand (read+write) accesses
system.l2.demand_accesses::.cpu.data            64574                       # number of demand (read+write) accesses
system.l2.demand_accesses::total                67088                       # number of demand (read+write) accesses
system.l2.overall_accesses::.cpu.inst            2514                       # number of overall (read+write) accesses
system.l2.overall_accesses::.cpu.data           64574                       # number of overall (read+write) accesses
system.l2.overall_accesses::total               67088                       # number of overall (read+write) accesses
system.l2.demand_miss_rate::.cpu.inst        0.990453                       # miss rate for demand accesses
system.l2.demand_miss_rate::.cpu.data        0.268885                       # miss rate for demand accesses
system.l2.demand_miss_rate::total            0.295925                       # miss rate for demand accesses
system.l2.overall_miss_rate::.cpu.inst       0.990453                       # miss rate for overall accesses
system.l2.overall_miss_rate::.cpu.data       0.268885                       # miss rate for overall accesses
system.l2.overall_miss_rate::total           0.295925                       # miss rate for overall accesses
system.l2.demand_avg_miss_latency::.cpu.inst 74722.489960                       # average overall miss latency
system.l2.demand_avg_miss_latency::.cpu.data 78760.899614                       # average overall miss latency
system.l2.demand_avg_miss_latency::total 78254.394802                       # average overall miss latency
system.l2.overall_avg_miss_latency::.cpu.inst 74722.489960                       # average overall miss latency
system.l2.overall_avg_miss_latency::.cpu.data 78760.899614                       # average overall miss latency
system.l2.overall_avg_miss_latency::total 78254.394802                       # average overall miss latency
system.l2.blocked_cycles::no_mshrs                  0                       # number of cycles access was blocked
system.l2.blocked_cycles::no_targets                0                       # number of cycles access was blocked
system.l2.blocked::no_mshrs                         0                       # number of cycles access was blocked
system.l2.blocked::no_targets                       0                       # number of cycles access was blocked
system.l2.avg_blocked_cycles::no_mshrs            nan                       # average number of cycles each access was blocked
system.l2.avg_blocked_cycles::no_targets          nan                       # average number of cycles each access was blocked
system.l2.writebacks::.writebacks                9579                       # number of writebacks
system.l2.writebacks::total                      9579                       # number of writebacks
system.l2.demand_mshr_misses::.cpu.inst          2490                       # number of demand (read+write) MSHR misses
system.l2.demand_mshr_misses::.cpu.data         17363                       # number of demand (read+write) MSHR misses
system.l2.demand_mshr_misses::total             19853                       # number of demand (read+write) MSHR misses
system.l2.overall_mshr_misses::.cpu.inst         2490                       # number of overall MSHR misses
system.l2.overall_mshr_misses::.cpu.data        17363                       # number of overall MSHR misses
system.l2.overall_mshr_misses::total            19853                       # number of overall MSHR misses
system.l2.demand_mshr_miss_latency::.cpu.inst    161159000                       # number of demand (read+write) MSHR miss cycles
system.l2.demand_mshr_miss_latency::.cpu.data   1193895500                       # number of demand (read+write) MSHR miss cycles
system.l2.demand_mshr_miss_latency::total   1355054500                       # number of demand (read+write) MSHR miss cycles
system.l2.overall_mshr_miss_latency::.cpu.inst    161159000                       # number of overall MSHR miss cycles
system.l2.overall_mshr_miss_latency::.cpu.data   1193895500                       # number of overall MSHR miss cycles
system.l2.overall_mshr_miss_latency::total   1355054500                       # number of overall MSHR miss cycles
system.l2.demand_mshr_miss_rate::.cpu.inst     0.990453                       # mshr miss rate for demand accesses
system.l2.demand_mshr_miss_rate::.cpu.data     0.268885                       # mshr miss rate for demand accesses
system.l2.demand_mshr_miss_rate::total       0.295925                       # mshr miss rate for demand accesses
system.l2.overall_mshr_miss_rate::.cpu.inst     0.990453                       # mshr miss rate for overall accesses
system.l2.overall_mshr_miss_rate::.cpu.data     0.268885                       # mshr miss rate for overall accesses
system.l2.overall_mshr_miss_rate::total      0.295925                       # mshr miss rate for overall accesses
system.l2.demand_avg_mshr_miss_latency::.cpu.inst 64722.489960                       # average overall mshr miss latency
system.l2.demand_avg_mshr_miss_latency::.cpu.data 68760.899614                       # average overall mshr miss latency
system.l2.demand_avg_mshr_miss_latency::total 68254.394802                       # average overall mshr miss latency
system.l2.overall_avg_mshr_miss_latency::.cpu.inst 64722.489960                       # average overall mshr miss latency
system.l2.overall_avg_mshr_miss_latency::.cpu.data 68760.899614                       # average overall mshr miss latency
system.l2.overall_avg_mshr_miss_latency::total 68254.394802                       # average overall mshr miss latency
system.l2.replacements                          32552                       # number of replacements
system.l2.WritebackDirty_hits::.writebacks        57379                       # number of WritebackDirty hits
system.l2.WritebackDirty_hits::total            57379                       # number of WritebackDirty hits
system.l2.WritebackDirty_accesses::.writebacks        57379                       # number of WritebackDirty accesses(hits+misses)
system.l2.WritebackDirty_accesses::total        57379                       # number of WritebackDirty accesses(hits+misses)
system.l2.WritebackClean_hits::.writebacks          331                       # number of WritebackClean hits
system.l2.WritebackClean_hits::total              331                       # number of WritebackClean hits
system.l2.WritebackClean_accesses::.writebacks          331                       # number of WritebackClean accesses(hits+misses)
system.l2.WritebackClean_accesses::total          331                       # number of WritebackClean accesses(hits+misses)
system.l2.CleanEvict_mshr_misses::.writebacks         1409                       # number of CleanEvict MSHR misses
system.l2.CleanEvict_mshr_misses::total          1409                       # number of CleanEvict MSHR misses
system.l2.CleanEvict_mshr_miss_rate::.writebacks          inf                       # mshr miss rate for CleanEvict accesses
system.l2.CleanEvict_mshr_miss_rate::total          inf                       # mshr miss rate for CleanEvict accesses
system.l2.ReadExReq_hits::.cpu.data             34153                       # number of ReadExReq hits
system.l2.ReadExReq_hits::total                 34153                       # number of ReadExReq hits
system.l2.ReadExReq_misses::.cpu.data           14499                       # number of ReadExReq misses
system.l2.ReadExReq_misses::total               14499                       # number of ReadExReq misses
system.l2.ReadExReq_miss_latency::.cpu.data   1141707500                       # number of ReadExReq miss cycles
system.l2.ReadExReq_miss_latency::total    1141707500                       # number of ReadExReq miss cycles
system.l2.ReadExReq_accesses::.cpu.data         48652                       # number of ReadExReq accesses(hits+misses)
system.l2.ReadExReq_accesses::total             48652                       # number of ReadExReq accesses(hits+misses)
system.l2.ReadExReq_miss_rate::.cpu.data     0.298014                       # miss rate for ReadExReq accesses
system.l2.ReadExReq_miss_rate::total         0.298014                       # miss rate for ReadExReq accesses
system.l2.ReadExReq_avg_miss_latency::.cpu.data 78743.878888                       # average ReadExReq miss latency
system.l2.ReadExReq_avg_miss_latency::total 78743.878888                       # average ReadExReq miss latency
system.l2.ReadExReq_mshr_misses::.cpu.data        14499                       # number of ReadExReq MSHR misses
system.l2.ReadExReq_mshr_misses::total          14499                       # number of ReadExReq MSHR misses
system.l2.ReadExReq_mshr_miss_latency::.cpu.data    996717500                       # number of ReadExReq MSHR miss cycles
system.l2.ReadExReq_mshr_miss_latency::total    996717500                       # number of ReadExReq MSHR miss cycles
system.l2.ReadExReq_mshr_miss_rate::.cpu.data     0.298014                       # mshr miss rate for ReadExReq accesses
system.l2.ReadExReq_mshr_miss_rate::total     0.298014                       # mshr miss rate for ReadExReq accesses
system.l2.ReadExReq_avg_mshr_miss_latency::.cpu.data 68743.878888                       # average ReadExReq mshr miss latency
system.l2.ReadExReq_avg_mshr_miss_latency::total 68743.878888                       # average ReadExReq mshr miss latency
system.l2.ReadCleanReq_hits::.cpu.inst             24                       # number of ReadCleanReq hits
system.l2.ReadCleanReq_hits::total                 24                       # number of ReadCleanReq hits
system.l2.ReadCleanReq_misses::.cpu.inst         2490                       # number of ReadCleanReq misses
system.l2.ReadCleanReq_misses::total             2490                       # number of ReadCleanReq misses
system.l2.ReadCleanReq_miss_latency::.cpu.inst    186059000                       # number of ReadCleanReq miss cycles
system.l2.ReadCleanReq_miss_latency::total    186059000                       # number of ReadCleanReq miss cycles
system.l2.ReadCleanReq_accesses::.cpu.inst         2514                       # number of ReadCleanReq accesses(hits+misses)
system.l2.ReadCleanReq_accesses::total           2514                       # number of ReadCleanReq accesses(hits+misses)
system.l2.ReadCleanReq_miss_rate::.cpu.inst     0.990453                       # miss rate for ReadCleanReq accesses
system.l2.ReadCleanReq_miss_rate::total      0.990453                       # miss rate for ReadCleanReq accesses
system.l2.ReadCleanReq_avg_miss_latency::.cpu.inst 74722.489960                       # average ReadCleanReq miss latency
system.l2.ReadCleanReq_avg_miss_latency::total 74722.489960                       # average ReadCleanReq miss latency
system.l2.ReadCleanReq_mshr_misses::.cpu.inst         2490                       # number of ReadCleanReq MSHR misses
system.l2.ReadCleanReq_mshr_misses::total         2490                       # number of ReadCleanReq MSHR misses
system.l2.ReadCleanReq_mshr_miss_latency::.cpu.inst    161159000                       # number of ReadCleanReq MSHR miss cycles
system.l2.ReadCleanReq_mshr_miss_latency::total    161159000                       # number of ReadCleanReq MSHR miss cycles
system.l2.ReadCleanReq_mshr_miss_rate::.cpu.inst     0.990453                       # mshr miss rate for ReadCleanReq accesses
system.l2.ReadCleanReq_mshr_miss_rate::total     0.990453                       # mshr miss rate for ReadCleanReq accesses
system.l2.ReadCleanReq_avg_mshr_miss_latency::.cpu.inst 64722.489960                       # average ReadCleanReq mshr miss latency
system.l2.ReadCleanReq_avg_mshr_miss_latency::total 64722.489960                       # average ReadCleanReq mshr miss latency
system.l2.ReadSharedReq_hits::.cpu.data         13058                       # number of ReadSharedReq hits
system.l2.ReadSharedReq_hits::total             13058                       # number of ReadSharedReq hits
system.l2.ReadSharedReq_misses::.cpu.data         2864                       # number of ReadSharedReq misses
system.l2.ReadSharedReq_misses::total            2864                       # number of ReadSharedReq misses
system.l2.ReadSharedReq_miss_latency::.cpu.data    225818000                       # number of ReadSharedReq miss cycles
system.l2.ReadSharedReq_miss_latency::total    225818000                       # number of ReadSharedReq miss cycles
system.l2.ReadSharedReq_accesses::.cpu.data        15922                       # number of ReadSharedReq accesses(hits+misses)
system.l2.ReadSharedReq_accesses::total         15922                       # number of ReadSharedReq accesses(hits+misses)
system.l2.ReadSharedReq_miss_rate::.cpu.data     0.179877                       # miss rate for ReadSharedReq accesses
system.l2.ReadSharedReq_miss_rate::total     0.179877                       # miss rate for ReadSharedReq accesses
system.l2.ReadSharedReq_avg_miss_latency::.cpu.data 78847.067039                       # average ReadSharedReq miss latency
system.l2.ReadSharedReq_avg_miss_latency::total 78847.067039                       # average ReadSharedReq miss latency
system.l2.ReadSharedReq_mshr_misses::.cpu.data         2864                       # number of ReadSharedReq MSHR misses
system.l2.ReadSharedReq_mshr_misses::total         2864                       # number of ReadSharedReq MSHR misses
system.l2.ReadSharedReq_mshr_miss_latency::.cpu.data    197178000                       # number of ReadSharedReq MSHR miss cycles
system.l2.ReadSharedReq_mshr_miss_latency::total    197178000                       # number of ReadSharedReq MSHR miss cycles
system.l2.ReadSharedReq_mshr_miss_rate::.cpu.data     0.179877                       # mshr miss rate for ReadSharedReq accesses
system.l2.ReadSharedReq_mshr_miss_rate::total     0.179877                       # mshr miss rate for ReadSharedReq accesses
system.l2.ReadSharedReq_avg_mshr_miss_latency::.cpu.data 68847.067039                       # average ReadSharedReq mshr miss latency
system.l2.ReadSharedReq_avg_mshr_miss_latency::total 68847.067039                       # average ReadSharedReq mshr miss latency
system.l2.power_state.pwrStateResidencyTicks::UNDEFINED 192822832500                       # Cumulative time (in ticks) in various power states
system.l2.tags.tagsinuse                  4083.623051                       # Cycle average of tags in use
system.l2.tags.total_refs                      126488                       # Total number of references to valid blocks.
system.l2.tags.sampled_refs                     36648                       # Sample count of references to valid blocks.
system.l2.tags.avg_refs                      3.451430                       # Average number of references to valid blocks.
system.l2.tags.warmup_cycle                     77000                       # Cycle when the warmup percentage was hit.
system.l2.tags.occ_blocks::.writebacks    2178.296871                       # Average occupied blocks per requestor
system.l2.tags.occ_blocks::.cpu.inst        58.674039                       # Average occupied blocks per requestor
system.l2.tags.occ_blocks::.cpu.data      1846.652141                       # Average occupied blocks per requestor
system.l2.tags.occ_percent::.writebacks      0.531811                       # Average percentage of cache occupancy
system.l2.tags.occ_percent::.cpu.inst        0.014325                       # Average percentage of cache occupancy
system.l2.tags.occ_percent::.cpu.data        0.450843                       # Average percentage of cache occupancy
system.l2.tags.occ_percent::total            0.996978                       # Average percentage of cache occupancy
system.l2.tags.occ_task_id_blocks::1024          4096                       # Occupied blocks per task id
system.l2.tags.age_task_id_blocks_1024::2            1                       # Occupied blocks per task id
system.l2.tags.age_task_id_blocks_1024::3          127                       # Occupied blocks per task id
system.l2.tags.age_task_id_blocks_1024::4         3968                       # Occupied blocks per task id
system.l2.tags.occ_task_id_percent::1024            1                       # Percentage of cache occupancy per task id
system.l2.tags.tag_accesses                   2083000                       # Number of tag accesses
system.l2.tags.data_accesses                  2083000                       # Number of data accesses
system.l2.tags.power_state.pwrStateResidencyTicks::UNDEFINED 192822832500                       # Cumulative time (in ticks) in various power states
system.mem_ctrls.avgPriority_.writebacks::samples      6482.00                       # Average QoS priority value for accepted requests
system.mem_ctrls.avgPriority_.cpu.inst::samples      2490.00                       # Average QoS priority value for accepted requests
system.mem_ctrls.avgPriority_.cpu.data::samples     17173.00                       # Average QoS priority value for accepted requests
system.mem_ctrls.priorityMinLatency      0.000000018750                       # per QoS priority minimum request to response latency (s)
system.mem_ctrls.priorityMaxLatency      0.063486393750                       # per QoS priority maximum request to response latency (s)
system.mem_ctrls.numReadWriteTurnArounds          373                       # Number of turnarounds from READ to WRITE
system.mem_ctrls.numWriteReadTurnArounds          373                       # Number of turnarounds from WRITE to READ
system.mem_ctrls.numStayReadState               98165                       # Number of times bus staying in READ state
system.mem_ctrls.numStayWriteState               6102                       # Number of times bus staying in WRITE state
system.mem_ctrls.readReqs                       19853                       # Number of read requests accepted
system.mem_ctrls.writeReqs                       9579                       # Number of write requests accepted
system.mem_ctrls.readBursts                     19853                       # Number of controller read bursts, including those serviced by the write queue
system.mem_ctrls.writeBursts                     9579                       # Number of controller write bursts, including those merged in the write queue
system.mem_ctrls.servicedByWrQ                    190                       # Number of controller read bursts serviced by the write queue
system.mem_ctrls.mergedWrBursts                  3097                       # Number of controller write bursts merged with an existing one
system.mem_ctrls.neitherReadNorWriteReqs            0                       # Number of requests that are neither read nor write
system.mem_ctrls.avgRdQLen                       1.00                       # Average read queue length when enqueuing
system.mem_ctrls.avgWrQLen                      23.14                       # Average write queue length when enqueuing
system.mem_ctrls.numRdRetry                         0                       # Number of times read queue was full causing retry
system.mem_ctrls.numWrRetry                         0                       # Number of times write queue was full causing retry
system.mem_ctrls.readPktSize::0                     0                       # Read request sizes (log2)
system.mem_ctrls.readPktSize::1                     0                       # Read request sizes (log2)
system.mem_ctrls.readPktSize::2                     0                       # Read request sizes (log2)
system.mem_ctrls.readPktSize::3                     0                       # Read request sizes (log2)
system.mem_ctrls.readPktSize::4                     0                       # Read request sizes (log2)
system.mem_ctrls.readPktSize::5                 19853                       # Read request sizes (log2)
system.mem_ctrls.writePktSize::0                    0                       # Write request sizes (log2)
system.mem_ctrls.writePktSize::1                    0                       # Write request sizes (log2)
system.mem_ctrls.writePktSize::2                    0                       # Write request sizes (log2)
system.mem_ctrls.writePktSize::3                    0                       # Write request sizes (log2)
system.mem_ctrls.writePktSize::4                    0                       # Write request sizes (log2)
system.mem_ctrls.writePktSize::5                 9579                       # Write request sizes (log2)
system.mem_ctrls.rdQLenPdf::0                   19094                       # What read queue length does an incoming req see
system.mem_ctrls.rdQLenPdf::1                     562                       # What read queue length does an incoming req see
system.mem_ctrls.rdQLenPdf::2                       7                       # What read queue length does an incoming req see
system.mem_ctrls.rdQLenPdf::3                       0                       # What read queue length does an incoming req see
system.mem_ctrls.rdQLenPdf::4                       0                       # What read queue length does an incoming req see
system.mem_ctrls.rdQLenPdf::5                       0                       # What read queue length does an incoming req see
system.mem_ctrls.rdQLenPdf::6                       0                       # What read queue length does an incoming req see
system.mem_ctrls.rdQLenPdf::7                       0                       # What read queue length does an incoming req see
system.mem_ctrls.rdQLenPdf::8                       0                       # What read queue length does an incoming req see
system.mem_ctrls.rdQLenPdf::9                       0                       # What read queue length does an incoming req see
system.mem_ctrls.rdQLenPdf::10                      0                       # What read queue length does an incoming req see
system.mem_ctrls.rdQLenPdf::11                      0                       # What read queue length does an incoming req see
system.mem_ctrls.rdQLenPdf::12                      0                       # What read queue length does an incoming req see
system.mem_ctrls.rdQLenPdf::13                      0                       # What read queue length does an incoming req see
system.mem_ctrls.rdQLenPdf::14                      0                       # What read queue length does an incoming req see
system.mem_ctrls.rdQLenPdf::15                      0                       # What read queue length does an incoming req see
system.mem_ctrls.rdQLenPdf::16                      0                       # What read queue length does an incoming req see
system.mem_ctrls.rdQLenPdf::17                      0                       # What read queue length does an incoming req see
system.mem_ctrls.rdQLenPdf::18                      0                       # What read queue length does an incoming req see
system.mem_ctrls.rdQLenPdf::19                      0                       # What read queue length does an incoming req see
system.mem_ctrls.rdQLenPdf::20                      0                       # What read queue length does an incoming req see
system.mem_ctrls.rdQLenPdf::21                      0                       # What read queue length does an incoming req see
system.mem_ctrls.rdQLenPdf::22                      0                       # What read queue length does an incoming req see
system.mem_ctrls.rdQLenPdf::23                      0                       # What read queue length does an incoming req see
system.mem_ctrls.rdQLenPdf::24                      0                       # What read queue length does an incoming req see
system.mem_ctrls.rdQLenPdf::25                      0                       # What read queue length does an incoming req see
system.mem_ctrls.rdQLenPdf::26                      0                       # What read queue length does an incoming req see
system.mem_ctrls.rdQLenPdf::27                      0                       # What read queue length does an incoming req see
system.mem_ctrls.rdQLenPdf::28                      0                       # What read queue length does an incoming req see
system.mem_ctrls.rdQLenPdf::29                      0                       # What read queue length does an incoming req see
system.mem_ctrls.rdQLenPdf::30                      0                       # What read queue length does an incoming req see
system.mem_ctrls.rdQLenPdf::31                      0                       # What read queue length does an incoming req see
system.mem_ctrls.wrQLenPdf::0                       1                       # What write queue length does an incoming req see
system.mem_ctrls.wrQLenPdf::1                       1                       # What write queue length does an incoming req see
system.mem_ctrls.wrQLenPdf::2                       1                       # What write queue length does an incoming req see
system.mem_ctrls.wrQLenPdf::3                       1                       # What write queue length does an incoming req see
system.mem_ctrls.wrQLenPdf::4                       1                       # What write queue length does an incoming req see
system.mem_ctrls.wrQLenPdf::5                       1                       # What write queue length does an incoming req see
system.mem_ctrls.wrQLenPdf::6                       1                       # What write queue length does an incoming req see
system.mem_ctrls.wrQLenPdf::7                       1                       # What write queue length does an incoming req see
system.mem_ctrls.wrQLenPdf::8                       1                       # What write queue length does an incoming req see
system.mem_ctrls.wrQLenPdf::9                       1                       # What write queue length does an incoming req see
system.mem_ctrls.wrQLenPdf::10                      1                       # What write queue length does an incoming req see
system.mem_ctrls.wrQLenPdf::11                      1                       # What write queue length does an incoming req see
system.mem_ctrls.wrQLenPdf::12                      1                       # What write queue length does an incoming req see
system.mem_ctrls.wrQLenPdf::13                      1                       # What write queue length does an incoming req see
system.mem_ctrls.wrQLenPdf::14                      1                       # What write queue length does an incoming req see
system.mem_ctrls.wrQLenPdf::15                    233                       # What write queue length does an incoming req see
system.mem_ctrls.wrQLenPdf::16                    239                       # What write queue length does an incoming req see
system.mem_ctrls.wrQLenPdf::17                    365                       # What write queue length does an incoming req see
system.mem_ctrls.wrQLenPdf::18                    376                       # What write queue length does an incoming req see
system.mem_ctrls.wrQLenPdf::19                    375                       # What write queue length does an incoming req see
system.mem_ctrls.wrQLenPdf::20                    377                       # What write queue length does an incoming req see
system.mem_ctrls.wrQLenPdf::21                    375                       # What write queue length does an incoming req see
system.mem_ctrls.wrQLenPdf::22                    376                       # What write queue length does an incoming req see
system.mem_ctrls.wrQLenPdf::23                    376                       # What write queue length does an incoming req see
system.mem_ctrls.wrQLenPdf::24                    375                       # What write queue length does an incoming req see
system.mem_ctrls.wrQLenPdf::25                    379                       # What write queue length does an incoming req see
system.mem_ctrls.wrQLenPdf::26                    376                       # What write queue length does an incoming req see
system.mem_ctrls.wrQLenPdf::27                    374                       # What write queue length does an incoming req see
system.mem_ctrls.wrQLenPdf::28                    374                       # What write queue length does an incoming req see
system.mem_ctrls.wrQLenPdf::29                    375                       # What write queue length does an incoming req see
system.mem_ctrls.wrQLenPdf::30                    373                       # What write queue length does an incoming req see
system.mem_ctrls.wrQLenPdf::31                    373                       # What write queue length does an incoming req see
system.mem_ctrls.wrQLenPdf::32                    373                       # What write queue length does an incoming req see
system.mem_ctrls.wrQLenPdf::33                      2                       # What write queue length does an incoming req see
system.mem_ctrls.wrQLenPdf::34                      1                       # What write queue length does an incoming req see
system.mem_ctrls.wrQLenPdf::35                      0                       # What write queue length does an incoming req see
system.mem_ctrls.wrQLenPdf::36                      0                       # What write queue length does an incoming req see
system.mem_ctrls.wrQLenPdf::37                      0                       # What write queue length does an incoming req see
system.mem_ctrls.wrQLenPdf::38                      0                       # What write queue length does an incoming req see
system.mem_ctrls.wrQLenPdf::39                      0                       # What write queue length does an incoming req see
system.mem_ctrls.wrQLenPdf::40                      0                       # What write queue length does an incoming req see
system.mem_ctrls.wrQLenPdf::41                      0                       # What write queue length does an incoming req see
system.mem_ctrls.wrQLenPdf::42                      0                       # What write queue length does an incoming req see
system.mem_ctrls.wrQLenPdf::43                      0                       # What write queue length does an incoming req see
system.mem_ctrls.wrQLenPdf::44                      0                       # What write queue length does an incoming req see
system.mem_ctrls.wrQLenPdf::45                      0                       # What write queue length does an incoming req see
system.mem_ctrls.wrQLenPdf::46                      0                       # What write queue length does an incoming req see
system.mem_ctrls.wrQLenPdf::47                      0                       # What write queue length does an incoming req see
system.mem_ctrls.wrQLenPdf::48                      0                       # What write queue length does an incoming req see
system.mem_ctrls.wrQLenPdf::49                      0                       # What write queue length does an incoming req see
system.mem_ctrls.wrQLenPdf::50                      0                       # What write queue length does an incoming req see
system.mem_ctrls.wrQLenPdf::51                      0                       # What write queue length does an incoming req see
system.mem_ctrls.wrQLenPdf::52                      0                       # What write queue length does an incoming req see
system.mem_ctrls.wrQLenPdf::53                      0                       # What write queue length does an incoming req see
system.mem_ctrls.wrQLenPdf::54                      0                       # What write queue length does an incoming req see
system.mem_ctrls.wrQLenPdf::55                      0                       # What write queue length does an incoming req see
system.mem_ctrls.wrQLenPdf::56                      0                       # What write queue length does an incoming req see
system.mem_ctrls.wrQLenPdf::57                      0                       # What write queue length does an incoming req see
system.mem_ctrls.wrQLenPdf::58                      0                       # What write queue length does an incoming req see
system.mem_ctrls.wrQLenPdf::59                      0                       # What write queue length does an incoming req see
system.mem_ctrls.wrQLenPdf::60                      0                       # What write queue length does an incoming req see
system.mem_ctrls.wrQLenPdf::61                      0                       # What write queue length does an incoming req see
system.mem_ctrls.wrQLenPdf::62                      0                       # What write queue length does an incoming req see
system.mem_ctrls.wrQLenPdf::63                      0                       # What write queue length does an incoming req see
system.mem_ctrls.rdPerTurnAround::samples          373                       # Reads before turning the bus around for writes
system.mem_ctrls.rdPerTurnAround::mean      52.672922                       # Reads before turning the bus around for writes
system.mem_ctrls.rdPerTurnAround::stdev    435.088040                       # Reads before turning the bus around for writes
system.mem_ctrls.rdPerTurnAround::0-511           372     99.73%     99.73% # Reads before turning the bus around for writes
system.mem_ctrls.rdPerTurnAround::8192-8703            1      0.27%    100.00% # Reads before turning the bus around for writes
system.mem_ctrls.rdPerTurnAround::total           373                       # Reads before turning the bus around for writes
system.mem_ctrls.wrPerTurnAround::samples          373                       # Writes before turning the bus around for reads
system.mem_ctrls.wrPerTurnAround::mean      17.321716                       # Writes before turning the bus around for reads
system.mem_ctrls.wrPerTurnAround::gmean     17.289502                       # Writes before turning the bus around for reads
system.mem_ctrls.wrPerTurnAround::stdev      1.051617                       # Writes before turning the bus around for reads
system.mem_ctrls.wrPerTurnAround::16              137     36.73%     36.73% # Writes before turning the bus around for reads
system.mem_ctrls.wrPerTurnAround::17                4      1.07%     37.80% # Writes before turning the bus around for reads
system.mem_ctrls.wrPerTurnAround::18              210     56.30%     94.10% # Writes before turning the bus around for reads
system.mem_ctrls.wrPerTurnAround::19               19      5.09%     99.20% # Writes before turning the bus around for reads
system.mem_ctrls.wrPerTurnAround::20                3      0.80%    100.00% # Writes before turning the bus around for reads
system.mem_ctrls.wrPerTurnAround::total           373                       # Writes before turning the bus around for reads
[...]
system.mem_ctrls.dram.bw_total::.cpu.data      2881484                       # Total bandwidth to/from this memory (bytes/s)
system.mem_ctrls.dram.bw_total::total         4884401                       # Total bandwidth to/from this memory (bytes/s)
system.mem_ctrls.dram.readBursts                19663                       # Number of DRAM read bursts
system.mem_ctrls.dram.writeBursts                6461                       # Number of DRAM write bursts
system.mem_ctrls.dram.perBankRdBursts::0         1367                       # Per bank write bursts
system.mem_ctrls.dram.perBankRdBursts::1         1440                       # Per bank write bursts
system.mem_ctrls.dram.perBankRdBursts::2         1312                       # Per bank write bursts
system.mem_ctrls.dram.perBankRdBursts::3         1658                       # Per bank write bursts
system.mem_ctrls.dram.perBankRdBursts::4         1464                       # Per bank write bursts
system.mem_ctrls.dram.perBankRdBursts::5         1277                       # Per bank write bursts
system.mem_ctrls.dram.perBankRdBursts::6         1311                       # Per bank write bursts
system.mem_ctrls.dram.perBankRdBursts::7         1198                       # Per bank write bursts
system.mem_ctrls.dram.perBankRdBursts::8         1273                       # Per bank write bursts
system.mem_ctrls.dram.perBankRdBursts::9         1098                       # Per bank write bursts
system.mem_ctrls.dram.perBankRdBursts::10          753                       # Per bank write bursts
system.mem_ctrls.dram.perBankRdBursts::11         1093                       # Per bank write bursts
system.mem_ctrls.dram.perBankRdBursts::12          910                       # Per bank write bursts
system.mem_ctrls.dram.perBankRdBursts::13         1053                       # Per bank write bursts
system.mem_ctrls.dram.perBankRdBursts::14         1071                       # Per bank write bursts
system.mem_ctrls.dram.perBankRdBursts::15         1385                       # Per bank write bursts
system.mem_ctrls.dram.perBankWrBursts::0          479                       # Per bank write bursts
system.mem_ctrls.dram.perBankWrBursts::1          369                       # Per bank write bursts
system.mem_ctrls.dram.perBankWrBursts::2          364                       # Per bank write bursts
system.mem_ctrls.dram.perBankWrBursts::3          530                       # Per bank write bursts
system.mem_ctrls.dram.perBankWrBursts::4          466                       # Per bank write bursts
system.mem_ctrls.dram.perBankWrBursts::5          567                       # Per bank write bursts
system.mem_ctrls.dram.perBankWrBursts::6          510                       # Per bank write bursts
system.mem_ctrls.dram.perBankWrBursts::7          545                       # Per bank write bursts
system.mem_ctrls.dram.perBankWrBursts::8          405                       # Per bank write bursts
system.mem_ctrls.dram.perBankWrBursts::9          341                       # Per bank write bursts
system.mem_ctrls.dram.perBankWrBursts::10          270                       # Per bank write bursts
system.mem_ctrls.dram.perBankWrBursts::11          404                       # Per bank write bursts
system.mem_ctrls.dram.perBankWrBursts::12          272                       # Per bank write bursts
system.mem_ctrls.dram.perBankWrBursts::13          321                       # Per bank write bursts
system.mem_ctrls.dram.perBankWrBursts::14          225                       # Per bank write bursts
system.mem_ctrls.dram.perBankWrBursts::15          393                       # Per bank write bursts
system.mem_ctrls.dram.totQLat               177583250                       # Total ticks spent queuing
system.mem_ctrls.dram.totBusLat              98315000                       # Total ticks spent in databus transfers
system.mem_ctrls.dram.totMemAccLat          546264500                       # Total ticks spent from burst creation until serviced by the DRAM
system.mem_ctrls.dram.avgQLat                 9031.34                       # Average queueing delay per DRAM burst
system.mem_ctrls.dram.avgBusLat               5000.00                       # Average bus latency per DRAM burst
system.mem_ctrls.dram.avgMemAccLat           27781.34                       # Average memory access latency per DRAM burst
system.mem_ctrls.dram.readRowHits               14142                       # Number of row buffer hits during reads
system.mem_ctrls.dram.writeRowHits               5280                       # Number of row buffer hits during writes
system.mem_ctrls.dram.readRowHitRate            71.92                       # Row buffer hit rate for reads
system.mem_ctrls.dram.writeRowHitRate           81.72                       # Row buffer hit rate for writes
system.mem_ctrls.dram.bytesPerActivate::samples         6702                       # Bytes accessed per row activation
system.mem_ctrls.dram.bytesPerActivate::mean   249.468218                       # Bytes accessed per row activation
system.mem_ctrls.dram.bytesPerActivate::gmean   154.172128                       # Bytes accessed per row activation
system.mem_ctrls.dram.bytesPerActivate::stdev   290.336774                       # Bytes accessed per row activation
system.mem_ctrls.dram.bytesPerActivate::0-127         2403     35.85%     35.85% # Bytes accessed per row activation
system.mem_ctrls.dram.bytesPerActivate::128-255         2352     35.09%     70.95% # Bytes accessed per row activation
system.mem_ctrls.dram.bytesPerActivate::256-383          669      9.98%     80.93% # Bytes accessed per row activation
system.mem_ctrls.dram.bytesPerActivate::384-511          219      3.27%     84.20% # Bytes accessed per row activation
system.mem_ctrls.dram.bytesPerActivate::512-639          169      2.52%     86.72% # Bytes accessed per row activation
system.mem_ctrls.dram.bytesPerActivate::640-767          131      1.95%     88.68% # Bytes accessed per row activation
system.mem_ctrls.dram.bytesPerActivate::768-895          117      1.75%     90.42% # Bytes accessed per row activation
system.mem_ctrls.dram.bytesPerActivate::896-1023           90      1.34%     91.76% # Bytes accessed per row activation
system.mem_ctrls.dram.bytesPerActivate::1024-1151          552      8.24%    100.00% # Bytes accessed per row activation
system.mem_ctrls.dram.bytesPerActivate::total         6702                       # Bytes accessed per row activation
system.mem_ctrls.dram.bytesRead               1258432                       # Total number of bytes read from DRAM
system.mem_ctrls.dram.bytesWritten             413504                       # Total number of bytes written to DRAM
system.mem_ctrls.dram.avgRdBW                6.526364                       # Average DRAM read bandwidth in MiBytes/s
system.mem_ctrls.dram.avgWrBW                2.144476                       # Average DRAM write bandwidth in MiBytes/s
system.mem_ctrls.dram.peakBW                 12800.00                       # Theoretical peak bandwidth in MiByte/s
system.mem_ctrls.dram.busUtil                    0.07                       # Data bus utilization in percentage
system.mem_ctrls.dram.busUtilRead                0.05                       # Data bus utilization in percentage for reads
system.mem_ctrls.dram.busUtilWrite               0.02                       # Data bus utilization in percentage for writes
system.mem_ctrls.dram.pageHitRate               74.35                       # Row buffer hit rate, read and write combined
system.mem_ctrls.dram.power_state.pwrStateResidencyTicks::UNDEFINED 192822832500                       # Cumulative time (in ticks) in various power states
system.mem_ctrls.dram.rank0.actEnergy        26610780                       # Energy for activate commands per rank (pJ)
system.mem_ctrls.dram.rank0.preEnergy        14143965                       # Energy for precharge commands per rank (pJ)
system.mem_ctrls.dram.rank0.readEnergy       78732780                       # Energy for read commands per rank (pJ)
system.mem_ctrls.dram.rank0.writeEnergy      19992600                       # Energy for write commands per rank (pJ)
system.mem_ctrls.dram.rank0.refreshEnergy 15220944960.000002                       # Energy for refresh commands per rank (pJ)
system.mem_ctrls.dram.rank0.actBackEnergy   7397623020                       # Energy for active background per rank (pJ)
system.mem_ctrls.dram.rank0.preBackEnergy  67814390400                       # Energy for precharge background per rank (pJ)
system.mem_ctrls.dram.rank0.actPowerDownEnergy            0                       # Energy for active power-down per rank (pJ)
system.mem_ctrls.dram.rank0.prePowerDownEnergy            0                       # Energy for precharge power-down per rank (pJ)
system.mem_ctrls.dram.rank0.selfRefreshEnergy            0                       # Energy for self refresh per rank (pJ)
system.mem_ctrls.dram.rank0.totalEnergy   90572438505                       # Total energy per rank (pJ)
system.mem_ctrls.dram.rank0.averagePower   469.718432                       # Core power per rank (mW)
system.mem_ctrls.dram.rank0.totalIdleTime            0                       # Total Idle time Per DRAM Rank
system.mem_ctrls.dram.rank0.pwrStateTime::IDLE 176230474500                       # Time in different power states
system.mem_ctrls.dram.rank0.pwrStateTime::REF   6438640000                       # Time in different power states
system.mem_ctrls.dram.rank0.pwrStateTime::SREF            0                       # Time in different power states
system.mem_ctrls.dram.rank0.pwrStateTime::PRE_PDN            0                       # Time in different power states
system.mem_ctrls.dram.rank0.pwrStateTime::ACT  10153718000                       # Time in different power states
system.mem_ctrls.dram.rank0.pwrStateTime::ACT_PDN            0                       # Time in different power states
system.mem_ctrls.dram.rank1.actEnergy        21241500                       # Energy for activate commands per rank (pJ)
system.mem_ctrls.dram.rank1.preEnergy        11290125                       # Energy for precharge commands per rank (pJ)
system.mem_ctrls.dram.rank1.readEnergy       61661040                       # Energy for read commands per rank (pJ)
system.mem_ctrls.dram.rank1.writeEnergy      13733820                       # Energy for write commands per rank (pJ)
system.mem_ctrls.dram.rank1.refreshEnergy 15220944960.000002                       # Energy for refresh commands per rank (pJ)
system.mem_ctrls.dram.rank1.actBackEnergy   6618502560                       # Energy for active background per rank (pJ)
system.mem_ctrls.dram.rank1.preBackEnergy  68470491840                       # Energy for precharge background per rank (pJ)
system.mem_ctrls.dram.rank1.actPowerDownEnergy            0                       # Energy for active power-down per rank (pJ)
system.mem_ctrls.dram.rank1.prePowerDownEnergy            0                       # Energy for precharge power-down per rank (pJ)
system.mem_ctrls.dram.rank1.selfRefreshEnergy            0                       # Energy for self refresh per rank (pJ)
system.mem_ctrls.dram.rank1.totalEnergy   90417865845                       # Total energy per rank (pJ)
system.mem_ctrls.dram.rank1.averagePower   468.916801                       # Core power per rank (mW)
system.mem_ctrls.dram.rank1.totalIdleTime            0                       # Total Idle time Per DRAM Rank
system.mem_ctrls.dram.rank1.pwrStateTime::IDLE 177943998250                       # Time in different power states
system.mem_ctrls.dram.rank1.pwrStateTime::REF   6438640000                       # Time in different power states
system.mem_ctrls.dram.rank1.pwrStateTime::SREF            0                       # Time in different power states
system.mem_ctrls.dram.rank1.pwrStateTime::PRE_PDN            0                       # Time in different power states
system.mem_ctrls.dram.rank1.pwrStateTime::ACT   8440194250                       # Time in different power states
system.mem_ctrls.dram.rank1.pwrStateTime::ACT_PDN            0                       # Time in different power states
system.mem_ctrls.power_state.pwrStateResidencyTicks::UNDEFINED 192822832500                       # Cumulative time (in ticks) in various power states
system.membus.trans_dist::ReadResp               5354                       # Transaction distribution
system.membus.trans_dist::WritebackDirty         9579                       # Transaction distribution
system.membus.trans_dist::CleanEvict             2233                       # Transaction distribution
system.membus.trans_dist::ReadExReq             14499                       # Transaction distribution
system.membus.trans_dist::ReadExResp            14499                       # Transaction distribution
system.membus.trans_dist::ReadSharedReq          5354                       # Transaction distribution
system.membus.pkt_count_system.l2.mem_side_port::system.mem_ctrls.port        51518                       # Packet count per connected requestor and responder (bytes)
system.membus.pkt_count_system.l2.mem_side_port::total        51518                       # Packet count per connected requestor and responder (bytes)
system.membus.pkt_count::total                  51518                       # Packet count per connected requestor and responder (bytes)
system.membus.pkt_size_system.l2.mem_side_port::system.mem_ctrls.port       941824                       # Cumulative packet size per connected requestor and responder (bytes)
system.membus.pkt_size_system.l2.mem_side_port::total       941824                       # Cumulative packet size per connected requestor and responder (bytes)
system.membus.pkt_size::total                  941824                       # Cumulative packet size per connected requestor and responder (bytes)
system.membus.snoops                                0                       # Total snoops (count)
system.membus.snoopTraffic                          0                       # Total snoop traffic (bytes)
system.membus.snoop_fanout::samples             19853                       # Request fanout histogram
system.membus.snoop_fanout::mean                    0                       # Request fanout histogram
system.membus.snoop_fanout::stdev                   0                       # Request fanout histogram
system.membus.snoop_fanout::underflows              0      0.00%      0.00% # Request fanout histogram
system.membus.snoop_fanout::0                   19853    100.00%    100.00% # Request fanout histogram
system.membus.snoop_fanout::1                       0      0.00%    100.00% # Request fanout histogram
system.membus.snoop_fanout::overflows               0      0.00%    100.00% # Request fanout histogram
system.membus.snoop_fanout::min_value               0                       # Request fanout histogram
system.membus.snoop_fanout::max_value               0                       # Request fanout histogram
system.membus.snoop_fanout::total               19853                       # Request fanout histogram
system.membus.power_state.pwrStateResidencyTicks::UNDEFINED 192822832500                       # Cumulative time (in ticks) in various power states
system.membus.reqLayer2.occupancy            51089000                       # Layer occupancy (ticks)
system.membus.reqLayer2.utilization               0.0                       # Layer utilization (%)
system.membus.respLayer1.occupancy           65893500                       # Layer occupancy (ticks)
system.membus.respLayer1.utilization              0.0                       # Layer utilization (%)
system.tol2bus.trans_dist::ReadResp             18436                       # Transaction distribution
system.tol2bus.trans_dist::WritebackDirty        66958                       # Transaction distribution
system.tol2bus.trans_dist::WritebackClean          331                       # Transaction distribution
system.tol2bus.trans_dist::CleanEvict           26072                       # Transaction distribution
system.tol2bus.trans_dist::ReadExReq            48652                       # Transaction distribution
system.tol2bus.trans_dist::ReadExResp           48652                       # Transaction distribution
system.tol2bus.trans_dist::ReadCleanReq          2514                       # Transaction distribution
system.tol2bus.trans_dist::ReadSharedReq        15922                       # Transaction distribution
system.tol2bus.pkt_count_system.cpu.icache.mem_side_port::system.l2.cpu_side_port         5359                       # Packet count per connected requestor and responder (bytes)
system.tol2bus.pkt_count_system.cpu.dcache.mem_side_port::system.l2.cpu_side_port       189626                       # Packet count per connected requestor and responder (bytes)
system.tol2bus.pkt_count::total                194985                       # Packet count per connected requestor and responder (bytes)
system.tol2bus.pkt_size_system.cpu.icache.mem_side_port::system.l2.cpu_side_port        91040                       # Cumulative packet size per connected requestor and responder (bytes)
system.tol2bus.pkt_size_system.cpu.dcache.mem_side_port::system.l2.cpu_side_port      3902496                       # Cumulative packet size per connected requestor and responder (bytes)
system.tol2bus.pkt_size::total                3993536                       # Cumulative packet size per connected requestor and responder (bytes)
system.tol2bus.snoops                           32552                       # Total snoops (count)
system.tol2bus.snoopTraffic                    306528                       # Total snoop traffic (bytes)
system.tol2bus.snoop_fanout::samples            99640                       # Request fanout histogram
system.tol2bus.snoop_fanout::mean            0.222290                       # Request fanout histogram
system.tol2bus.snoop_fanout::stdev           0.415787                       # Request fanout histogram
system.tol2bus.snoop_fanout::underflows             0      0.00%      0.00% # Request fanout histogram
system.tol2bus.snoop_fanout::0                  77491     77.77%     77.77% # Request fanout histogram
system.tol2bus.snoop_fanout::1                  22149     22.23%    100.00% # Request fanout histogram
system.tol2bus.snoop_fanout::2                      0      0.00%    100.00% # Request fanout histogram
system.tol2bus.snoop_fanout::3                      0      0.00%    100.00% # Request fanout histogram
system.tol2bus.snoop_fanout::4                      0      0.00%    100.00% # Request fanout histogram
system.tol2bus.snoop_fanout::overflows              0      0.00%    100.00% # Request fanout histogram
system.tol2bus.snoop_fanout::min_value              0                       # Request fanout histogram
system.tol2bus.snoop_fanout::max_value              1                       # Request fanout histogram
system.tol2bus.snoop_fanout::total              99640                       # Request fanout histogram
system.tol2bus.power_state.pwrStateResidencyTicks::UNDEFINED 192822832500                       # Cumulative time (in ticks) in various power states
system.tol2bus.reqLayer0.occupancy           92803500                       # Layer occupancy (ticks)
system.tol2bus.reqLayer0.utilization              0.0                       # Layer utilization (%)
system.tol2bus.respLayer0.occupancy           2514000                       # Layer occupancy (ticks)
system.tol2bus.respLayer0.utilization             0.0                       # Layer utilization (%)
system.tol2bus.respLayer1.occupancy          64574000                       # Layer occupancy (ticks)
system.tol2bus.respLayer1.utilization             0.0                       # Layer utilization (%)
system.voltage_domain.voltage                       1                       # Voltage in Volts

---------- End Simulation Statistics   ----------
