
---------- Begin Simulation Statistics ----------
final_tick                               191325523500                       # Number of ticks from beginning of simulation (restored from checkpoints and never reset)
host_inst_rate                                 711424                       # Simulator instruction rate (inst/s)
host_mem_usage                                 654652                       # Number of bytes of host memory used
host_op_rate                                  1310529                       # Simulator op (including micro ops) rate (op/s)
host_seconds                                   140.56                       # Real time elapsed on the host
host_tick_rate                             1361134772                       # Simulator tick rate (ticks/s)
sim_freq                                 1000000000000                       # Frequency of simulated ticks
sim_insts                                   100000001                       # Number of instructions simulated
sim_ops                                     184212218                       # Number of ops (including micro ops) simulated
sim_seconds                                  0.191326                       # Number of seconds simulated
sim_ticks                                191325523500                       # Number of ticks simulated
system.cpu.Branches                          21138365                       # Number of branches fetched
system.cpu.committedInsts                   100000001                       # Number of instructions committed
system.cpu.committedOps                     184212218                       # Number of ops (including micro ops) committed
system.cpu.idle_fraction                            0                       # Percentage of idle cycles
system.cpu.not_idle_fraction                        1                       # Percentage of non-idle cycles
system.cpu.numCycles                        382651047                       # number of cpu cycles simulated
system.cpu.numWorkItemsCompleted                    0                       # number of work items this cpu completed
system.cpu.numWorkItemsStarted                      0                       # number of work items this cpu started
system.cpu.num_busy_cycles                  382651047                       # Number of busy cycles
system.cpu.num_cc_register_reads            110470900                       # number of times the CC registers were read
system.cpu.num_cc_register_writes            56278691                       # number of times the CC registers were written
system.cpu.num_conditional_control_insts     17377044                       # number of instructions that are conditional controls
system.cpu.num_fp_alu_accesses                4198252                       # Number of float alu accesses
system.cpu.num_fp_insts                       4198252                       # number of float instructions
system.cpu.num_fp_register_reads              4465556                       # number of times the floating registers were read
system.cpu.num_fp_register_writes             2555554                       # number of times the floating registers were written
system.cpu.num_func_calls                     1777727                       # number of times a function call or return occured
system.cpu.num_idle_cycles                          0                       # Number of idle cycles
system.cpu.num_int_alu_accesses             181168224                       # Number of integer alu accesses
system.cpu.num_int_insts                    181168224                       # number of integer instructions
system.cpu.num_int_register_reads           359599209                       # number of times the integer registers were read
system.cpu.num_int_register_writes          144214147                       # number of times the integer registers were written
system.cpu.num_load_insts                    23270941                       # Number of load instructions
system.cpu.num_mem_refs                      38707146                       # number of memory refs
system.cpu.num_store_insts                   15436205                       # Number of store instructions
system.cpu.num_vec_alu_accesses                     0                       # Number of vector alu accesses
system.cpu.num_vec_insts                            0                       # number of vector instructions
system.cpu.num_vec_register_reads                   0                       # number of times the vector registers were read
system.cpu.num_vec_register_writes                  0                       # number of times the vector registers were written
system.cpu.op_class::No_OpClass               1407926      0.76%      0.76% # Class of executed instruction
system.cpu.op_class::IntAlu                 141803021     76.98%     77.74% # Class of executed instruction
system.cpu.op_class::IntMult                   451603      0.25%     77.99% # Class of executed instruction
system.cpu.op_class::IntDiv                        28      0.00%     77.99% # Class of executed instruction
system.cpu.op_class::FloatAdd                  465164      0.25%     78.24% # Class of executed instruction
system.cpu.op_class::FloatCmp                       0      0.00%     78.24% # Class of executed instruction
system.cpu.op_class::FloatCvt                       0      0.00%     78.24% # Class of executed instruction
system.cpu.op_class::FloatMult                      0      0.00%     78.24% # Class of executed instruction
system.cpu.op_class::FloatMultAcc                   0      0.00%     78.24% # Class of executed instruction
system.cpu.op_class::FloatDiv                       0      0.00%     78.24% # Class of executed instruction
system.cpu.op_class::FloatMisc                      0      0.00%     78.24% # Class of executed instruction
system.cpu.op_class::FloatSqrt                      0      0.00%     78.24% # Class of executed instruction
system.cpu.op_class::SimdAdd                        0      0.00%     78.24% # Class of executed instruction
system.cpu.op_class::SimdAddAcc                     0      0.00%     78.24% # Class of executed instruction
system.cpu.op_class::SimdAlu                    95520      0.05%     78.29% # Class of executed instruction
system.cpu.op_class::SimdCmp                        0      0.00%     78.29% # Class of executed instruction
system.cpu.op_class::SimdCvt                   215010      0.12%     78.41% # Class of executed instruction
system.cpu.op_class::SimdMisc                 1068136      0.58%     78.99% # Class of executed instruction
system.cpu.op_class::SimdMult                       0      0.00%     78.99% # Class of executed instruction
system.cpu.op_class::SimdMultAcc                    0      0.00%     78.99% # Class of executed instruction
system.cpu.op_class::SimdShift                      0      0.00%     78.99% # Class of executed instruction
system.cpu.op_class::SimdShiftAcc                   0      0.00%     78.99% # Class of executed instruction
system.cpu.op_class::SimdDiv                        0      0.00%     78.99% # Class of executed instruction
system.cpu.op_class::SimdSqrt                       0      0.00%     78.99% # Class of executed instruction
system.cpu.op_class::SimdFloatAdd                   0      0.00%     78.99% # Class of executed instruction
system.cpu.op_class::SimdFloatAlu                   0      0.00%     78.99% # Class of executed instruction
system.cpu.op_class::SimdFloatCmp                   0      0.00%     78.99% # Class of executed instruction
system.cpu.op_class::SimdFloatCvt                   0      0.00%     78.99% # Class of executed instruction
system.cpu.op_class::SimdFloatDiv                   0      0.00%     78.99% # Class of executed instruction
system.cpu.op_class::SimdFloatMisc                  0      0.00%     78.99% # Class of executed instruction
system.cpu.op_class::SimdFloatMult                  0      0.00%     78.99% # Class of executed instruction
system.cpu.op_class::SimdFloatMultAcc               0      0.00%     78.99% # Class of executed instruction
system.cpu.op_class::SimdFloatSqrt                  0      0.00%     78.99% # Class of executed instruction
system.cpu.op_class::SimdReduceAdd                  0      0.00%     78.99% # Class of executed instruction
system.cpu.op_class::SimdReduceAlu                  0      0.00%     78.99% # Class of executed instruction
system.cpu.op_class::SimdReduceCmp                  0      0.00%     78.99% # Class of executed instruction
system.cpu.op_class::SimdFloatReduceAdd             0      0.00%     78.99% # Class of executed instruction
system.cpu.op_class::SimdFloatReduceCmp             0      0.00%     78.99% # Class of executed instruction
system.cpu.op_class::SimdAes                        0      0.00%     78.99% # Class of executed instruction
system.cpu.op_class::SimdAesMix                     0      0.00%     78.99% # Class of executed instruction
system.cpu.op_class::SimdSha1Hash                   0      0.00%     78.99% # Class of executed instruction
system.cpu.op_class::SimdSha1Hash2                  0      0.00%     78.99% # Class of executed instruction
system.cpu.op_class::SimdSha256Hash                 0      0.00%     78.99% # Class of executed instruction
system.cpu.op_class::SimdSha256Hash2                0      0.00%     78.99% # Class of executed instruction
system.cpu.op_class::SimdShaSigma2                  0      0.00%     78.99% # Class of executed instruction
system.cpu.op_class::SimdShaSigma3                  0      0.00%     78.99% # Class of executed instruction
system.cpu.op_class::SimdPredAlu                    0      0.00%     78.99% # Class of executed instruction
system.cpu.op_class::MemRead                 22624662     12.28%     91.27% # Class of executed instruction
system.cpu.op_class::MemWrite                14008515      7.60%     98.87% # Class of executed instruction
system.cpu.op_class::FloatMemRead              646279      0.35%     99.22% # Class of executed instruction
system.cpu.op_class::FloatMemWrite            1427690      0.78%    100.00% # Class of executed instruction
system.cpu.op_class::IprAccess                      0      0.00%    100.00% # Class of executed instruction
system.cpu.op_class::InstPrefetch                   0      0.00%    100.00% # Class of executed instruction
system.cpu.op_class::total                  184213554                       # Class of executed instruction
system.cpu.workload.numSyscalls                    93                       # Number of system calls
system.membus.snoop_filter.hit_multi_requests            0                       # Number of requests hitting in the snoop filter with multiple (>1) holders of the requested data.
system.membus.snoop_filter.hit_multi_snoops            0                       # Number of snoops hitting in the snoop filter with multiple (>1) holders of the requested data.
system.membus.snoop_filter.hit_single_requests       153326                       # Number of requests hitting in the snoop filter with a single holder of the requested data.
system.membus.snoop_filter.hit_single_snoops            0                       # Number of snoops hitting in the snoop filter with a single holder of the requested data.
system.membus.snoop_filter.tot_requests        313897                       # Total number of requests made to the snoop filter.
system.membus.snoop_filter.tot_snoops               0                       # Total number of snoops made to the snoop filter.
system.tol2bus.snoop_filter.hit_multi_requests            0                       # Number of requests hitting in the snoop filter with multiple (>1) holders of the requested data.
system.tol2bus.snoop_filter.hit_multi_snoops            0                       # Number of snoops hitting in the snoop filter with multiple (>1) holders of the requested data.
system.tol2bus.snoop_filter.hit_single_requests       156333                       # Number of requests hitting in the snoop filter with a single holder of the requested data.
system.tol2bus.snoop_filter.hit_single_snoops       157600                       # Number of snoops hitting in the snoop filter with a single holder of the requested data.
system.tol2bus.snoop_filter.tot_requests       317791                       # Total number of requests made to the snoop filter.
system.tol2bus.snoop_filter.tot_snoops         157600                       # Total number of snoops made to the snoop filter.
system.clk_domain.clock                          1000                       # Clock period in ticks
system.cpu.dcache.demand_hits::.cpu.data     38577809                       # number of demand (read+write) hits
system.cpu.dcache.demand_hits::total         38577809                       # number of demand (read+write) hits
system.cpu.dcache.overall_hits::.cpu.data     38577809                       # number of overall hits
system.cpu.dcache.overall_hits::total        38577809                       # number of overall hits
system.cpu.dcache.demand_misses::.cpu.data       160408                       # number of demand (read+write) misses
system.cpu.dcache.demand_misses::total         160408                       # number of demand (read+write) misses
system.cpu.dcache.overall_misses::.cpu.data       160408                       # number of overall misses
system.cpu.dcache.overall_misses::total        160408                       # number of overall misses
system.cpu.dcache.demand_miss_latency::.cpu.data  12937487000                       # number of demand (read+write) miss cycles
system.cpu.dcache.demand_miss_latency::total  12937487000                       # number of demand (read+write) miss cycles
system.cpu.dcache.overall_miss_latency::.cpu.data  12937487000                       # number of overall miss cycles
system.cpu.dcache.overall_miss_latency::total  12937487000                       # number of overall miss cycles
system.cpu.dcache.demand_accesses::.cpu.data     38738217                       # number of demand (read+write) accesses
system.cpu.dcache.demand_accesses::total     38738217                       # number of demand (read+write) accesses
system.cpu.dcache.overall_accesses::.cpu.data     38738217                       # number of overall (read+write) accesses
system.cpu.dcache.overall_accesses::total     38738217                       # number of overall (read+write) accesses
system.cpu.dcache.demand_miss_rate::.cpu.data     0.004141                       # miss rate for demand accesses
system.cpu.dcache.demand_miss_rate::total     0.004141                       # miss rate for demand accesses
system.cpu.dcache.overall_miss_rate::.cpu.data     0.004141                       # miss rate for overall accesses
system.cpu.dcache.overall_miss_rate::total     0.004141                       # miss rate for overall accesses
system.cpu.dcache.demand_avg_miss_latency::.cpu.data 80653.627001                       # average overall miss latency
system.cpu.dcache.demand_avg_miss_latency::total 80653.627001                       # average overall miss latency
system.cpu.dcache.overall_avg_miss_latency::.cpu.data 80653.627001                       # average overall miss latency
system.cpu.dcache.overall_avg_miss_latency::total 80653.627001                       # average overall miss latency
system.cpu.dcache.blocked_cycles::no_mshrs            0                       # number of cycles access was blocked
system.cpu.dcache.blocked_cycles::no_targets            0                       # number of cycles access was blocked
system.cpu.dcache.blocked::no_mshrs                 0                       # number of cycles access was blocked
system.cpu.dcache.blocked::no_targets               0                       # number of cycles access was blocked
system.cpu.dcache.avg_blocked_cycles::no_mshrs          nan                       # average number of cycles each access was blocked
system.cpu.dcache.avg_blocked_cycles::no_targets          nan                       # average number of cycles each access was blocked
system.cpu.dcache.writebacks::.writebacks       154601                       # number of writebacks
system.cpu.dcache.writebacks::total            154601                       # number of writebacks
system.cpu.dcache.demand_mshr_misses::.cpu.data       160408                       # number of demand (read+write) MSHR misses
system.cpu.dcache.demand_mshr_misses::total       160408                       # number of demand (read+write) MSHR misses
system.cpu.dcache.overall_mshr_misses::.cpu.data       160408                       # number of overall MSHR misses
system.cpu.dcache.overall_mshr_misses::total       160408                       # number of overall MSHR misses
system.cpu.dcache.demand_mshr_miss_latency::.cpu.data  12777079000                       # number of demand (read+write) MSHR miss cycles
system.cpu.dcache.demand_mshr_miss_latency::total  12777079000                       # number of demand (read+write) MSHR miss cycles
system.cpu.dcache.overall_mshr_miss_latency::.cpu.data  12777079000                       # number of overall MSHR miss cycles
system.cpu.dcache.overall_mshr_miss_latency::total  12777079000                       # number of overall MSHR miss cycles
system.cpu.dcache.demand_mshr_miss_rate::.cpu.data     0.004141                       # mshr miss rate for demand accesses
system.cpu.dcache.demand_mshr_miss_rate::total     0.004141                       # mshr miss rate for demand accesses
system.cpu.dcache.overall_mshr_miss_rate::.cpu.data     0.004141                       # mshr miss rate for overall accesses
system.cpu.dcache.overall_mshr_miss_rate::total     0.004141                       # mshr miss rate for overall accesses
system.cpu.dcache.demand_avg_mshr_miss_latency::.cpu.data 79653.627001                       # average overall mshr miss latency
system.cpu.dcache.demand_avg_mshr_miss_latency::total 79653.627001                       # average overall mshr miss latency
system.cpu.dcache.overall_avg_mshr_miss_latency::.cpu.data 79653.627001                       # average overall mshr miss latency
system.cpu.dcache.overall_avg_mshr_miss_latency::total 79653.627001                       # average overall mshr miss latency
system.cpu.dcache.replacements                 156312                       # number of replacements
system.cpu.dcache.ReadReq_hits::.cpu.data     23280395                       # number of ReadReq hits
system.cpu.dcache.ReadReq_hits::total        23280395                       # number of ReadReq hits
system.cpu.dcache.ReadReq_misses::.cpu.data        22853                       # number of ReadReq misses
system.cpu.dcache.ReadReq_misses::total         22853                       # number of ReadReq misses
system.cpu.dcache.ReadReq_miss_latency::.cpu.data   1951057500                       # number of ReadReq miss cycles
system.cpu.dcache.ReadReq_miss_latency::total   1951057500                       # number of ReadReq miss cycles
system.cpu.dcache.ReadReq_accesses::.cpu.data     23303248                       # number of ReadReq accesses(hits+misses)
system.cpu.dcache.ReadReq_accesses::total     23303248                       # number of ReadReq accesses(hits+misses)
system.cpu.dcache.ReadReq_miss_rate::.cpu.data     0.000981                       # miss rate for ReadReq accesses
system.cpu.dcache.ReadReq_miss_rate::total     0.000981                       # miss rate for ReadReq accesses
system.cpu.dcache.ReadReq_avg_miss_latency::.cpu.data 85374.239706                       # average ReadReq miss latency
system.cpu.dcache.ReadReq_avg_miss_latency::total 85374.239706                       # average ReadReq miss latency
system.cpu.dcache.ReadReq_mshr_misses::.cpu.data        22853                       # number of ReadReq MSHR misses
system.cpu.dcache.ReadReq_mshr_misses::total        22853                       # number of ReadReq MSHR misses
system.cpu.dcache.ReadReq_mshr_miss_latency::.cpu.data   1928204500                       # number of ReadReq MSHR miss cycles
system.cpu.dcache.ReadReq_mshr_miss_latency::total   1928204500                       # number of ReadReq MSHR miss cycles
system.cpu.dcache.ReadReq_mshr_miss_rate::.cpu.data     0.000981                       # mshr miss rate for ReadReq accesses
system.cpu.dcache.ReadReq_mshr_miss_rate::total     0.000981                       # mshr miss rate for ReadReq accesses
system.cpu.dcache.ReadReq_avg_mshr_miss_latency::.cpu.data 84374.239706                       # average ReadReq mshr miss latency
system.cpu.dcache.ReadReq_avg_mshr_miss_latency::total 84374.239706                       # average ReadReq mshr miss latency
system.cpu.dcache.WriteReq_hits::.cpu.data     15297414                       # number of WriteReq hits
system.cpu.dcache.WriteReq_hits::total       15297414                       # number of WriteReq hits
system.cpu.dcache.WriteReq_misses::.cpu.data       137555                       # number of WriteReq misses
system.cpu.dcache.WriteReq_misses::total       137555                       # number of WriteReq misses
system.cpu.dcache.WriteReq_miss_latency::.cpu.data  10986429500                       # number of WriteReq miss cycles
system.cpu.dcache.WriteReq_miss_latency::total  10986429500                       # number of WriteReq miss cycles
system.cpu.dcache.WriteReq_accesses::.cpu.data     15434969                       # number of WriteReq accesses(hits+misses)
system.cpu.dcache.WriteReq_accesses::total     15434969                       # number of WriteReq accesses(hits+misses)
system.cpu.dcache.WriteReq_miss_rate::.cpu.data     0.008912                       # miss rate for WriteReq accesses
system.cpu.dcache.WriteReq_miss_rate::total     0.008912                       # miss rate for WriteReq accesses
system.cpu.dcache.WriteReq_avg_miss_latency::.cpu.data 79869.357711                       # average WriteReq miss latency
system.cpu.dcache.WriteReq_avg_miss_latency::total 79869.357711                       # average WriteReq miss latency
system.cpu.dcache.WriteReq_mshr_misses::.cpu.data       137555                       # number of WriteReq MSHR misses
system.cpu.dcache.WriteReq_mshr_misses::total       137555                       # number of WriteReq MSHR misses
system.cpu.dcache.WriteReq_mshr_miss_latency::.cpu.data  10848874500                       # number of WriteReq MSHR miss cycles
system.cpu.dcache.WriteReq_mshr_miss_latency::total  10848874500                       # number of WriteReq MSHR miss cycles
system.cpu.dcache.WriteReq_mshr_miss_rate::.cpu.data     0.008912                       # mshr miss rate for WriteReq accesses
system.cpu.dcache.WriteReq_mshr_miss_rate::total     0.008912                       # mshr miss rate for WriteReq accesses
system.cpu.dcache.WriteReq_avg_mshr_miss_latency::.cpu.data 78869.357711                       # average WriteReq mshr miss latency
system.cpu.dcache.WriteReq_avg_mshr_miss_latency::total 78869.357711                       # average WriteReq mshr miss latency
system.cpu.dcache.power_state.pwrStateResidencyTicks::UNDEFINED 191325523500                       # Cumulative time (in ticks) in various power states
system.cpu.dcache.tags.tagsinuse          4079.701503                       # Cycle average of tags in use
system.cpu.dcache.tags.total_refs            38738217                       # Total number of references to valid blocks.
system.cpu.dcache.tags.sampled_refs            160408                       # Sample count of references to valid blocks.
system.cpu.dcache.tags.avg_refs            241.498036                       # Average number of references to valid blocks.
system.cpu.dcache.tags.warmup_cycle            177500                       # Cycle when the warmup percentage was hit.
system.cpu.dcache.tags.occ_blocks::.cpu.data  4079.701503                       # Average occupied blocks per requestor
system.cpu.dcache.tags.occ_percent::.cpu.data     0.996021                       # Average percentage of cache occupancy
system.cpu.dcache.tags.occ_percent::total     0.996021                       # Average percentage of cache occupancy
system.cpu.dcache.tags.occ_task_id_blocks::1024         4096                       # Occupied blocks per task id
system.cpu.dcache.tags.age_task_id_blocks_1024::0            5                       # Occupied blocks per task id
system.cpu.dcache.tags.age_task_id_blocks_1024::1           51                       # Occupied blocks per task id
system.cpu.dcache.tags.age_task_id_blocks_1024::2          581                       # Occupied blocks per task id
system.cpu.dcache.tags.age_task_id_blocks_1024::3         3134                       # Occupied blocks per task id
system.cpu.dcache.tags.age_task_id_blocks_1024::4          325                       # Occupied blocks per task id
system.cpu.dcache.tags.occ_task_id_percent::1024            1                       # Percentage of cache occupancy per task id
system.cpu.dcache.tags.tag_accesses         310066144                       # Number of tag accesses
system.cpu.dcache.tags.data_accesses        310066144                       # Number of data accesses
system.cpu.dcache.tags.power_state.pwrStateResidencyTicks::UNDEFINED 191325523500                       # Cumulative time (in ticks) in various power states
system.cpu.dtb.rdAccesses                    23303250                       # TLB accesses on read requests
system.cpu.dtb.wrAccesses                    15436210                       # TLB accesses on write requests
system.cpu.dtb.rdMisses                         21891                       # TLB misses on read requests
system.cpu.dtb.wrMisses                          2489                       # TLB misses on write requests
system.cpu.dtb.walker.power_state.pwrStateResidencyTicks::UNDEFINED 191325523500                       # Cumulative time (in ticks) in various power states
system.cpu.dtb_walker_cache.blocked_cycles::no_mshrs            0                       # number of cycles access was blocked
system.cpu.dtb_walker_cache.blocked_cycles::no_targets            0                       # number of cycles access was blocked
system.cpu.dtb_walker_cache.blocked::no_mshrs            0                       # number of cycles access was blocked
system.cpu.dtb_walker_cache.blocked::no_targets            0                       # number of cycles access was blocked
system.cpu.dtb_walker_cache.avg_blocked_cycles::no_mshrs          nan                       # average number of cycles each access was blocked
system.cpu.dtb_walker_cache.avg_blocked_cycles::no_targets          nan                       # average number of cycles each access was blocked
system.cpu.dtb_walker_cache.replacements            0                       # number of replacements
system.cpu.dtb_walker_cache.power_state.pwrStateResidencyTicks::UNDEFINED 191325523500                       # Cumulative time (in ticks) in various power states
system.cpu.dtb_walker_cache.tags.tagsinuse            0                       # Cycle average of tags in use
system.cpu.dtb_walker_cache.tags.total_refs            0                       # Total number of references to valid blocks.
system.cpu.dtb_walker_cache.tags.sampled_refs            0                       # Sample count of references to valid blocks.
system.cpu.dtb_walker_cache.tags.avg_refs          nan                       # Average number of references to valid blocks.
system.cpu.dtb_walker_cache.tags.warmup_cycle            0                       # Cycle when the warmup percentage was hit.
system.cpu.dtb_walker_cache.tags.tag_accesses            0                       # Number of tag accesses
system.cpu.dtb_walker_cache.tags.data_accesses            0                       # Number of data accesses
system.cpu.dtb_walker_cache.tags.power_state.pwrStateResidencyTicks::UNDEFINED 191325523500                       # Cumulative time (in ticks) in various power states
system.cpu.icache.demand_hits::.cpu.inst    139744651                       # number of demand (read+write) hits
system.cpu.icache.demand_hits::total        139744651                       # number of demand (read+write) hits
system.cpu.icache.overall_hits::.cpu.inst    139744651                       # number of overall hits
system.cpu.icache.overall_hits::total       139744651                       # number of overall hits
system.cpu.icache.demand_misses::.cpu.inst         1050                       # number of demand (read+write) misses
system.cpu.icache.demand_misses::total           1050                       # number of demand (read+write) misses
system.cpu.icache.overall_misses::.cpu.inst         1050                       # number of overall misses
system.cpu.icache.overall_misses::total          1050                       # number of overall misses
system.cpu.icache.demand_miss_latency::.cpu.inst     82146000                       # number of demand (read+write) miss cycles
system.cpu.icache.demand_miss_latency::total     82146000                       # number of demand (read+write) miss cycles
system.cpu.icache.overall_miss_latency::.cpu.inst     82146000                       # number of overall miss cycles
system.cpu.icache.overall_miss_latency::total     82146000                       # number of overall miss cycles
system.cpu.icache.demand_accesses::.cpu.inst    139745701                       # number of demand (read+write) accesses
system.cpu.icache.demand_accesses::total    139745701                       # number of demand (read+write) accesses
system.cpu.icache.overall_accesses::.cpu.inst    139745701                       # number of overall (read+write) accesses
system.cpu.icache.overall_accesses::total    139745701                       # number of overall (read+write) accesses
system.cpu.icache.demand_miss_rate::.cpu.inst     0.000008                       # miss rate for demand accesses
system.cpu.icache.demand_miss_rate::total     0.000008                       # miss rate for demand accesses
system.cpu.icache.overall_miss_rate::.cpu.inst     0.000008                       # miss rate for overall accesses
system.cpu.icache.overall_miss_rate::total     0.000008                       # miss rate for overall accesses
system.cpu.icache.demand_avg_miss_latency::.cpu.inst 78234.285714                       # average overall miss latency
system.cpu.icache.demand_avg_miss_latency::total 78234.285714                       # average overall miss latency
system.cpu.icache.overall_avg_miss_latency::.cpu.inst 78234.285714                       # average overall miss latency
system.cpu.icache.overall_avg_miss_latency::total 78234.285714                       # average overall miss latency
system.cpu.icache.blocked_cycles::no_mshrs            0                       # number of cycles access was blocked
system.cpu.icache.blocked_cycles::no_targets            0                       # number of cycles access was blocked
system.cpu.icache.blocked::no_mshrs                 0                       # number of cycles access was blocked
system.cpu.icache.blocked::no_targets               0                       # number of cycles access was blocked
system.cpu.icache.avg_blocked_cycles::no_mshrs          nan                       # average number of cycles each access was blocked
system.cpu.icache.avg_blocked_cycles::no_targets          nan                       # average number of cycles each access was blocked
system.cpu.icache.writebacks::.writebacks           21                       # number of writebacks
system.cpu.icache.writebacks::total                21                       # number of writebacks
system.cpu.icache.demand_mshr_misses::.cpu.inst         1050                       # number of demand (read+write) MSHR misses
system.cpu.icache.demand_mshr_misses::total         1050                       # number of demand (read+write) MSHR misses
system.cpu.icache.overall_mshr_misses::.cpu.inst         1050                       # number of overall MSHR misses
system.cpu.icache.overall_mshr_misses::total         1050                       # number of overall MSHR misses
system.cpu.icache.demand_mshr_miss_latency::.cpu.inst     81096000                       # number of demand (read+write) MSHR miss cycles
system.cpu.icache.demand_mshr_miss_latency::total     81096000                       # number of demand (read+write) MSHR miss cycles
system.cpu.icache.overall_mshr_miss_latency::.cpu.inst     81096000                       # number of overall MSHR miss cycles
system.cpu.icache.overall_mshr_miss_latency::total     81096000                       # number of overall MSHR miss cycles
system.cpu.icache.demand_mshr_miss_rate::.cpu.inst     0.000008                       # mshr miss rate for demand accesses
system.cpu.icache.demand_mshr_miss_rate::total     0.000008                       # mshr miss rate for demand accesses
system.cpu.icache.overall_mshr_miss_rate::.cpu.inst     0.000008                       # mshr miss rate for overall accesses
system.cpu.icache.overall_mshr_miss_rate::total     0.000008                       # mshr miss rate for overall accesses
system.cpu.icache.demand_avg_mshr_miss_latency::.cpu.inst 77234.285714                       # average overall mshr miss latency
system.cpu.icache.demand_avg_mshr_miss_latency::total 77234.285714                       # average overall mshr miss latency
system.cpu.icache.overall_avg_mshr_miss_latency::.cpu.inst 77234.285714                       # average overall mshr miss latency
system.cpu.icache.overall_avg_mshr_miss_latency::total 77234.285714                       # average overall mshr miss latency
system.cpu.icache.replacements                     21                       # number of replacements
system.cpu.icache.ReadReq_hits::.cpu.inst    139744651                       # number of ReadReq hits
system.cpu.icache.ReadReq_hits::total       139744651                       # number of ReadReq hits
system.cpu.icache.ReadReq_misses::.cpu.inst         1050                       # number of ReadReq misses
system.cpu.icache.ReadReq_misses::total          1050                       # number of ReadReq misses
system.cpu.icache.ReadReq_miss_latency::.cpu.inst     82146000                       # number of ReadReq miss cycles
system.cpu.icache.ReadReq_miss_latency::total     82146000                       # number of ReadReq miss cycles
system.cpu.icache.ReadReq_accesses::.cpu.inst    139745701                       # number of ReadReq accesses(hits+misses)
system.cpu.icache.ReadReq_accesses::total    139745701                       # number of ReadReq accesses(hits+misses)
system.cpu.icache.ReadReq_miss_rate::.cpu.inst     0.000008                       # miss rate for ReadReq accesses
system.cpu.icache.ReadReq_miss_rate::total     0.000008                       # miss rate for ReadReq accesses
system.cpu.icache.ReadReq_avg_miss_latency::.cpu.inst 78234.285714                       # average ReadReq miss latency
system.cpu.icache.ReadReq_avg_miss_latency::total 78234.285714                       # average ReadReq miss latency
system.cpu.icache.ReadReq_mshr_misses::.cpu.inst         1050                       # number of ReadReq MSHR misses
system.cpu.icache.ReadReq_mshr_misses::total         1050                       # number of ReadReq MSHR misses
system.cpu.icache.ReadReq_mshr_miss_latency::.cpu.inst     81096000                       # number of ReadReq MSHR miss cycles
system.cpu.icache.ReadReq_mshr_miss_latency::total     81096000                       # number of ReadReq MSHR miss cycles
system.cpu.icache.ReadReq_mshr_miss_rate::.cpu.inst     0.000008                       # mshr miss rate for ReadReq accesses
system.cpu.icache.ReadReq_mshr_miss_rate::total     0.000008                       # mshr miss rate for ReadReq accesses
system.cpu.icache.ReadReq_avg_mshr_miss_latency::.cpu.inst 77234.285714                       # average ReadReq mshr miss latency
system.cpu.icache.ReadReq_avg_mshr_miss_latency::total 77234.285714                       # average ReadReq mshr miss latency
system.cpu.icache.power_state.pwrStateResidencyTicks::UNDEFINED 191325523500                       # Cumulative time (in ticks) in various power states
system.cpu.icache.tags.tagsinuse          1024.449415                       # Cycle average of tags in use
system.cpu.icache.tags.total_refs           139745701                       # Total number of references to valid blocks.
system.cpu.icache.tags.sampled_refs              1050                       # Sample count of references to valid blocks.
system.cpu.icache.tags.avg_refs          133091.143810                       # Average number of references to valid blocks.
system.cpu.icache.tags.warmup_cycle             87500                       # Cycle when the warmup percentage was hit.
system.cpu.icache.tags.occ_blocks::.cpu.inst  1024.449415                       # Average occupied blocks per requestor
system.cpu.icache.tags.occ_percent::.cpu.inst     0.250110                       # Average percentage of cache occupancy
system.cpu.icache.tags.occ_percent::total     0.250110                       # Average percentage of cache occupancy
system.cpu.icache.tags.occ_task_id_blocks::1024         1029                       # Occupied blocks per task id
system.cpu.icache.tags.age_task_id_blocks_1024::4         1029                       # Occupied blocks per task id
system.cpu.icache.tags.occ_task_id_percent::1024     0.251221                       # Percentage of cache occupancy per task id
system.cpu.icache.tags.tag_accesses         279492452                       # Number of tag accesses
system.cpu.icache.tags.data_accesses        279492452                       # Number of data accesses
system.cpu.icache.tags.power_state.pwrStateResidencyTicks::UNDEFINED 191325523500                       # Cumulative time (in ticks) in various power states
system.cpu.interrupts.clk_domain.clock           8000                       # Clock period in ticks
system.cpu.itb.rdAccesses                           0                       # TLB accesses on read requests
system.cpu.itb.wrAccesses                   139745701                       # TLB accesses on write requests
system.cpu.itb.rdMisses                             0                       # TLB misses on read requests
system.cpu.itb.wrMisses                            51                       # TLB misses on write requests
system.cpu.itb.walker.power_state.pwrStateResidencyTicks::UNDEFINED 191325523500                       # Cumulative time (in ticks) in various power states
system.cpu.itb_walker_cache.blocked_cycles::no_mshrs            0                       # number of cycles access was blocked
system.cpu.itb_walker_cache.blocked_cycles::no_targets            0                       # number of cycles access was blocked
system.cpu.itb_walker_cache.blocked::no_mshrs            0                       # number of cycles access was blocked
system.cpu.itb_walker_cache.blocked::no_targets            0                       # number of cycles access was blocked
system.cpu.itb_walker_cache.avg_blocked_cycles::no_mshrs          nan                       # average number of cycles each access was blocked
system.cpu.itb_walker_cache.avg_blocked_cycles::no_targets          nan                       # average number of cycles each access was blocked
system.cpu.itb_walker_cache.replacements            0                       # number of replacements
system.cpu.itb_walker_cache.power_state.pwrStateResidencyTicks::UNDEFINED 191325523500                       # Cumulative time (in ticks) in various power states
system.cpu.itb_walker_cache.tags.tagsinuse            0                       # Cycle average of tags in use
system.cpu.itb_walker_cache.tags.total_refs            0                       # Total number of references to valid blocks.
system.cpu.itb_walker_cache.tags.sampled_refs            0                       # Sample count of references to valid blocks.
system.cpu.itb_walker_cache.tags.avg_refs          nan                       # Average number of references to valid blocks.
system.cpu.itb_walker_cache.tags.warmup_cycle            0                       # Cycle when the warmup percentage was hit.
system.cpu.itb_walker_cache.tags.tag_accesses            0                       # Number of tag accesses
system.cpu.itb_walker_cache.tags.data_accesses            0                       # Number of data accesses
system.cpu.itb_walker_cache.tags.power_state.pwrStateResidencyTicks::UNDEFINED 191325523500                       # Cumulative time (in ticks) in various power states
system.cpu.power_state.pwrStateResidencyTicks::ON 191325523500                       # Cumulative time (in ticks) in various power states
system.cpu.thread_0.numInsts                        0                       # Number of Instructions committed
system.cpu.thread_0.numOps                          0                       # Number of Ops committed
system.cpu.thread_0.numMemRefs                      0                       # Number of Memory References
system.cpu_clk_domain.clock                       500                       # Clock period in ticks
system.cpu_voltage_domain.voltage                   1                       # Voltage in Volts
system.l2.demand_hits::.cpu.data                  887                       # number of demand (read+write) hits
system.l2.demand_hits::total                      887                       # number of demand (read+write) hits
system.l2.overall_hits::.cpu.data                 887                       # number of overall hits
system.l2.overall_hits::total                     887                       # number of overall hits
system.l2.demand_misses::.cpu.inst               1050                       # number of demand (read+write) misses
system.l2.demand_misses::.cpu.data             159521                       # number of demand (read+write) misses
system.l2.demand_misses::total                 160571                       # number of demand (read+write) misses
system.l2.overall_misses::.cpu.inst              1050                       # number of overall misses
system.l2.overall_misses::.cpu.data            159521                       # number of overall misses
system.l2.overall_misses::total                160571                       # number of overall misses
system.l2.demand_miss_latency::.cpu.inst     79521000                       # number of demand (read+write) miss cycles
system.l2.demand_miss_latency::.cpu.data  12527153500                       # number of demand (read+write) miss cycles
system.l2.demand_miss_latency::total      12606674500                       # number of demand (read+write) miss cycles
system.l2.overall_miss_latency::.cpu.inst     79521000                       # number of overall miss cycles
system.l2.overall_miss_latency::.cpu.data  12527153500                       # number of overall miss cycles
system.l2.overall_miss_latency::total     12606674500                       # number of overall miss cycles
system.l2.demand_accesses::.cpu.inst             1050                       # number of demand (read+write) accesses
system.l2.demand_accesses::.cpu.data           160408                       # number of demand (read+write) accesses
system.l2.demand_accesses::total               161458                       # number of demand (read+write) accesses
system.l2.overall_accesses::.cpu.inst            1050                       # number of overall (read+write) accesses
system.l2.overall_accesses::.cpu.data          160408                       # number of overall (read+write) accesses
system.l2.overall_accesses::total              161458                       # number of overall (read+write) accesses
system.l2.demand_miss_rate::.cpu.inst               1                       # miss rate for demand accesses
system.l2.demand_miss_rate::.cpu.data        0.994470                       # miss rate for demand accesses
system.l2.demand_miss_rate::total            0.994506                       # miss rate for demand accesses
system.l2.overall_miss_rate::.cpu.inst              1                       # miss rate for overall accesses
system.l2.overall_miss_rate::.cpu.data       0.994470                       # miss rate for overall accesses
system.l2.overall_miss_rate::total           0.994506                       # miss rate for overall accesses
system.l2.demand_avg_miss_latency::.cpu.inst 75734.285714                       # average overall miss latency
system.l2.demand_avg_miss_latency::.cpu.data 78529.807988                       # average overall miss latency
system.l2.demand_avg_miss_latency::total 78511.527611                       # average overall miss latency
system.l2.overall_avg_miss_latency::.cpu.inst 75734.285714                       # average overall miss latency
system.l2.overall_avg_miss_latency::.cpu.data 78529.807988                       # average overall miss latency
system.l2.overall_avg_miss_latency::total 78511.527611                       # average overall miss latency
system.l2.blocked_cycles::no_mshrs                  0                       # number of cycles access was blocked
system.l2.blocked_cycles::no_targets                0                       # number of cycles access was blocked
system.l2.blocked::no_mshrs                         0                       # number of cycles access was blocked
system.l2.blocked::no_targets                       0                       # number of cycles access was blocked
system.l2.avg_blocked_cycles::no_mshrs            nan                       # average number of cycles each access was blocked
system.l2.avg_blocked_cycles::no_targets          nan                       # average number of cycles each access was blocked
system.l2.writebacks::.writebacks              151594                       # number of writebacks
system.l2.writebacks::total                    151594                       # number of writebacks
system.l2.demand_mshr_misses::.cpu.inst          1050                       # number of demand (read+write) MSHR misses
system.l2.demand_mshr_misses::.cpu.data        159521                       # number of demand (read+write) MSHR misses
system.l2.demand_mshr_misses::total            160571                       # number of demand (read+write) MSHR misses
system.l2.overall_mshr_misses::.cpu.inst         1050                       # number of overall MSHR misses
system.l2.overall_mshr_misses::.cpu.data       159521                       # number of overall MSHR misses
system.l2.overall_mshr_misses::total           160571                       # number of overall MSHR misses
system.l2.demand_mshr_miss_latency::.cpu.inst     69021000                       # number of demand (read+write) MSHR miss cycles
system.l2.demand_mshr_miss_latency::.cpu.data  10931943500                       # number of demand (read+write) MSHR miss cycles
system.l2.demand_mshr_miss_latency::total  11000964500                       # number of demand (read+write) MSHR miss cycles
system.l2.overall_mshr_miss_latency::.cpu.inst     69021000                       # number of overall MSHR miss cycles
system.l2.overall_mshr_miss_latency::.cpu.data  10931943500                       # number of overall MSHR miss cycles
system.l2.overall_mshr_miss_latency::total  11000964500                       # number of overall MSHR miss cycles
system.l2.demand_mshr_miss_rate::.cpu.inst            1                       # mshr miss rate for demand accesses
system.l2.demand_mshr_miss_rate::.cpu.data     0.994470                       # mshr miss rate for demand accesses
system.l2.demand_mshr_miss_rate::total       0.994506                       # mshr miss rate for demand accesses
system.l2.overall_mshr_miss_rate::.cpu.inst            1                       # mshr miss rate for overall accesses
system.l2.overall_mshr_miss_rate::.cpu.data     0.994470                       # mshr miss rate for overall accesses
system.l2.overall_mshr_miss_rate::total      0.994506                       # mshr miss rate for overall accesses
system.l2.demand_avg_mshr_miss_latency::.cpu.inst 65734.285714                       # average overall mshr miss latency
system.l2.demand_avg_mshr_miss_latency::.cpu.data 68529.807988                       # average overall mshr miss latency
system.l2.demand_avg_mshr_miss_latency::total 68511.527611                       # average overall mshr miss latency
system.l2.overall_avg_mshr_miss_latency::.cpu.inst 65734.285714                       # average overall mshr miss latency
system.l2.overall_avg_mshr_miss_latency::.cpu.data 68529.807988                       # average overall mshr miss latency
system.l2.overall_avg_mshr_miss_latency::total 68511.527611                       # average overall mshr miss latency
system.l2.replacements                         309232                       # number of replacements
system.l2.WritebackDirty_hits::.writebacks       154601                       # number of WritebackDirty hits
system.l2.WritebackDirty_hits::total           154601                       # number of WritebackDirty hits
system.l2.WritebackDirty_accesses::.writebacks       154601                       # number of WritebackDirty accesses(hits+misses)
system.l2.WritebackDirty_accesses::total       154601                       # number of WritebackDirty accesses(hits+misses)
system.l2.WritebackClean_hits::.writebacks           21                       # number of WritebackClean hits
system.l2.WritebackClean_hits::total               21                       # number of WritebackClean hits
system.l2.WritebackClean_accesses::.writebacks           21                       # number of WritebackClean accesses(hits+misses)
system.l2.WritebackClean_accesses::total           21                       # number of WritebackClean accesses(hits+misses)
system.l2.CleanEvict_mshr_misses::.writebacks         1694                       # number of CleanEvict MSHR misses
system.l2.CleanEvict_mshr_misses::total          1694                       # number of CleanEvict MSHR misses
system.l2.CleanEvict_mshr_miss_rate::.writebacks          inf                       # mshr miss rate for CleanEvict accesses
system.l2.CleanEvict_mshr_miss_rate::total          inf                       # mshr miss rate for CleanEvict accesses
system.l2.ReadExReq_misses::.cpu.data          137555                       # number of ReadExReq misses
system.l2.ReadExReq_misses::total              137555                       # number of ReadExReq misses
system.l2.ReadExReq_miss_latency::.cpu.data  10642542000                       # number of ReadExReq miss cycles
system.l2.ReadExReq_miss_latency::total   10642542000                       # number of ReadExReq miss cycles
system.l2.ReadExReq_accesses::.cpu.data        137555                       # number of ReadExReq accesses(hits+misses)
system.l2.ReadExReq_accesses::total            137555                       # number of ReadExReq accesses(hits+misses)
system.l2.ReadExReq_miss_rate::.cpu.data            1                       # miss rate for ReadExReq accesses
system.l2.ReadExReq_miss_rate::total                1                       # miss rate for ReadExReq accesses
system.l2.ReadExReq_avg_miss_latency::.cpu.data 77369.357711                       # average ReadExReq miss latency
system.l2.ReadExReq_avg_miss_latency::total 77369.357711                       # average ReadExReq miss latency
system.l2.ReadExReq_mshr_misses::.cpu.data       137555                       # number of ReadExReq MSHR misses
system.l2.ReadExReq_mshr_misses::total         137555                       # number of ReadExReq MSHR misses
system.l2.ReadExReq_mshr_miss_latency::.cpu.data   9266992000                       # number of ReadExReq MSHR miss cycles
system.l2.ReadExReq_mshr_miss_latency::total   9266992000                       # number of ReadExReq MSHR miss cycles
system.l2.ReadExReq_mshr_miss_rate::.cpu.data            1                       # mshr miss rate for ReadExReq accesses
system.l2.ReadExReq_mshr_miss_rate::total            1                       # mshr miss rate for ReadExReq accesses
system.l2.ReadExReq_avg_mshr_miss_latency::.cpu.data 67369.357711                       # average ReadExReq mshr miss latency
system.l2.ReadExReq_avg_mshr_miss_latency::total 67369.357711                       # average ReadExReq mshr miss latency
system.l2.ReadCleanReq_misses::.cpu.inst         1050                       # number of ReadCleanReq misses
system.l2.ReadCleanReq_misses::total             1050                       # number of ReadCleanReq misses
system.l2.ReadCleanReq_miss_latency::.cpu.inst     79521000                       # number of ReadCleanReq miss cycles
system.l2.ReadCleanReq_miss_latency::total     79521000                       # number of ReadCleanReq miss cycles
system.l2.ReadCleanReq_accesses::.cpu.inst         1050                       # number of ReadCleanReq accesses(hits+misses)
system.l2.ReadCleanReq_accesses::total           1050                       # number of ReadCleanReq accesses(hits+misses)
system.l2.ReadCleanReq_miss_rate::.cpu.inst            1                       # miss rate for ReadCleanReq accesses
system.l2.ReadCleanReq_miss_rate::total             1                       # miss rate for ReadCleanReq accesses
system.l2.ReadCleanReq_avg_miss_latency::.cpu.inst 75734.285714                       # average ReadCleanReq miss latency
system.l2.ReadCleanReq_avg_miss_latency::total 75734.285714                       # average ReadCleanReq miss latency
system.l2.ReadCleanReq_mshr_misses::.cpu.inst         1050                       # number of ReadCleanReq MSHR misses
system.l2.ReadCleanReq_mshr_misses::total         1050                       # number of ReadCleanReq MSHR misses
system.l2.ReadCleanReq_mshr_miss_latency::.cpu.inst     69021000                       # number of ReadCleanReq MSHR miss cycles
system.l2.ReadCleanReq_mshr_miss_latency::total     69021000                       # number of ReadCleanReq MSHR miss cycles
system.l2.ReadCleanReq_mshr_miss_rate::.cpu.inst            1                       # mshr miss rate for ReadCleanReq accesses
system.l2.ReadCleanReq_mshr_miss_rate::total            1                       # mshr miss rate for ReadCleanReq accesses
system.l2.ReadCleanReq_avg_mshr_miss_latency::.cpu.inst 65734.285714                       # average ReadCleanReq mshr miss latency
system.l2.ReadCleanReq_avg_mshr_miss_latency::total 65734.285714                       # average ReadCleanReq mshr miss latency
system.l2.ReadSharedReq_hits::.cpu.data           887                       # number of ReadSharedReq hits
system.l2.ReadSharedReq_hits::total               887                       # number of ReadSharedReq hits
system.l2.ReadSharedReq_misses::.cpu.data        21966                       # number of ReadSharedReq misses
system.l2.ReadSharedReq_misses::total           21966                       # number of ReadSharedReq misses
system.l2.ReadSharedReq_miss_latency::.cpu.data   1884611500                       # number of ReadSharedReq miss cycles
system.l2.ReadSharedReq_miss_latency::total   1884611500                       # number of ReadSharedReq miss cycles
system.l2.ReadSharedReq_accesses::.cpu.data        22853                       # number of ReadSharedReq accesses(hits+misses)
system.l2.ReadSharedReq_accesses::total         22853                       # number of ReadSharedReq accesses(hits+misses)
system.l2.ReadSharedReq_miss_rate::.cpu.data     0.961187                       # miss rate for ReadSharedReq accesses
system.l2.ReadSharedReq_miss_rate::total     0.961187                       # miss rate for ReadSharedReq accesses
system.l2.ReadSharedReq_avg_miss_latency::.cpu.data 85796.754074                       # average ReadSharedReq miss latency
system.l2.ReadSharedReq_avg_miss_latency::total 85796.754074                       # average ReadSharedReq miss latency
system.l2.ReadSharedReq_mshr_misses::.cpu.data        21966                       # number of ReadSharedReq MSHR misses
system.l2.ReadSharedReq_mshr_misses::total        21966                       # number of ReadSharedReq MSHR misses
system.l2.ReadSharedReq_mshr_miss_latency::.cpu.data   1664951500                       # number of ReadSharedReq MSHR miss cycles
system.l2.ReadSharedReq_mshr_miss_latency::total   1664951500                       # number of ReadSharedReq MSHR miss cycles
system.l2.ReadSharedReq_mshr_miss_rate::.cpu.data     0.961187                       # mshr miss rate for ReadSharedReq accesses
system.l2.ReadSharedReq_mshr_miss_rate::total     0.961187                       # mshr miss rate for ReadSharedReq accesses
system.l2.ReadSharedReq_avg_mshr_miss_latency::.cpu.data 75796.754074                       # average ReadSharedReq mshr miss latency
system.l2.ReadSharedReq_avg_mshr_miss_latency::total 75796.754074                       # average ReadSharedReq mshr miss latency
system.l2.power_state.pwrStateResidencyTicks::UNDEFINED 191325523500                       # Cumulative time (in ticks) in various power states
system.l2.tags.tagsinuse                  4083.227311                       # Cycle average of tags in use
system.l2.tags.total_refs                      316097                       # Total number of references to valid blocks.
system.l2.tags.sampled_refs                    313328                       # Sample count of references to valid blocks.
system.l2.tags.avg_refs                      1.008837                       # Average number of references to valid blocks.
system.l2.tags.warmup_cycle                     77000                       # Cycle when the warmup percentage was hit.
system.l2.tags.occ_blocks::.writebacks    2073.785593                       # Average occupied blocks per requestor
system.l2.tags.occ_blocks::.cpu.inst         5.740120                       # Average occupied blocks per requestor
system.l2.tags.occ_blocks::.cpu.data      2003.701599                       # Average occupied blocks per requestor
system.l2.tags.occ_percent::.writebacks      0.506295                       # Average percentage of cache occupancy
system.l2.tags.occ_percent::.cpu.inst        0.001401                       # Average percentage of cache occupancy
system.l2.tags.occ_percent::.cpu.data        0.489185                       # Average percentage of cache occupancy
system.l2.tags.occ_percent::total            0.996882                       # Average percentage of cache occupancy
system.l2.tags.occ_task_id_blocks::1024          4096                       # Occupied blocks per task id
system.l2.tags.age_task_id_blocks_1024::0           10                       # Occupied blocks per task id
system.l2.tags.age_task_id_blocks_1024::1          102                       # Occupied blocks per task id
system.l2.tags.age_task_id_blocks_1024::2         1102                       # Occupied blocks per task id
system.l2.tags.age_task_id_blocks_1024::3         2881                       # Occupied blocks per task id
system.l2.tags.age_task_id_blocks_1024::4            1                       # Occupied blocks per task id
system.l2.tags.occ_task_id_percent::1024            1                       # Percentage of cache occupancy per task id
system.l2.tags.tag_accesses                    948910                       # Number of tag accesses
system.l2.tags.data_accesses                   948910                       # Number of data accesses
system.l2.tags.power_state.pwrStateResidencyTicks::UNDEFINED 191325523500                       # Cumulative time (in ticks) in various power states
system.mem_ctrls.avgPriority_.writebacks::samples    137171.00                       # Average QoS priority value for accepted requests
system.mem_ctrls.avgPriority_.cpu.inst::samples      1050.00                       # Average QoS priority value for accepted requests
system.mem_ctrls.avgPriority_.cpu.data::samples    159484.00                       # Average QoS priority value for accepted requests
system.mem_ctrls.priorityMinLatency      0.000000018750                       # per QoS priority minimum request to response latency (s)
system.mem_ctrls.priorityMaxLatency      0.000951206500                       # per QoS priority maximum request to response latency (s)
system.mem_ctrls.numReadWriteTurnArounds         7851                       # Number of turnarounds from READ to WRITE
system.mem_ctrls.numWriteReadTurnArounds         7851                       # Number of turnarounds from WRITE to READ
system.mem_ctrls.numStayReadState              516671                       # Number of times bus staying in READ state
system.mem_ctrls.numStayWriteState             129416                       # Number of times bus staying in WRITE state
system.mem_ctrls.readReqs                      160571                       # Number of read requests accepted
system.mem_ctrls.writeReqs                     151594                       # Number of write requests accepted
system.mem_ctrls.readBursts                    160571                       # Number of controller read bursts, including those serviced by the write queue
system.mem_ctrls.writeBursts                   151594                       # Number of controller write bursts, including those merged in the write queue
system.mem_ctrls.servicedByWrQ                     37                       # Number of controller read bursts serviced by the write queue
system.mem_ctrls.mergedWrBursts                 14423                       # Number of controller write bursts merged with an existing one
system.mem_ctrls.neitherReadNorWriteReqs            0                       # Number of requests that are neither read nor write
system.mem_ctrls.avgRdQLen                       1.00                       # Average read queue length when enqueuing
system.mem_ctrls.avgWrQLen                      24.58                       # Average write queue length when enqueuing
system.mem_ctrls.numRdRetry                         0                       # Number of times read queue was full causing retry
system.mem_ctrls.numWrRetry                         0                       # Number of times write queue was full causing retry
system.mem_ctrls.readPktSize::0                     0                       # Read request sizes (log2)
system.mem_ctrls.readPktSize::1                     0                       # Read request sizes (log2)
system.mem_ctrls.readPktSize::2                     0                       # Read request sizes (log2)
system.mem_ctrls.readPktSize::3                     0                       # Read request sizes (log2)
system.mem_ctrls.readPktSize::4                     0                       # Read request sizes (log2)
system.mem_ctrls.readPktSize::5                160571                       # Read request sizes (log2)
system.mem_ctrls.writePktSize::0                    0                       # Write request sizes (log2)
system.mem_ctrls.writePktSize::1                    0                       # Write request sizes (log2)
system.mem_ctrls.writePktSize::2                    0                       # Write request sizes (log2)
system.mem_ctrls.writePktSize::3                    0                       # Write request sizes (log2)
system.mem_ctrls.writePktSize::4                    0                       # Write request sizes (log2)
system.mem_ctrls.writePktSize::5               151594                       # Write request sizes (log2)
system.mem_ctrls.rdQLenPdf::0                  160534                       # What read queue length does an incoming req see
system.mem_ctrls.rdQLenPdf::1                       0                       # What read queue length does an incoming req see
system.mem_ctrls.rdQLenPdf::2                       0                       # What read queue length does an incoming req see
system.mem_ctrls.rdQLenPdf::3                       0                       # What read queue length does an incoming req see
system.mem_ctrls.rdQLenPdf::4                       0                       # What read queue length does an incoming req see
system.mem_ctrls.rdQLenPdf::5                       0                       # What read queue length does an incoming req see
system.mem_ctrls.rdQLenPdf::6                       0                       # What read queue length does an incoming req see
system.mem_ctrls.rdQLenPdf::7                       0                       # What read queue length does an incoming req see
system.mem_ctrls.rdQLenPdf::8                       0                       # What read queue length does an incoming req see
system.mem_ctrls.rdQLenPdf::9                       0                       # What read queue length does an incoming req see
system.mem_ctrls.rdQLenPdf::10                      0                       # What read queue length does an incoming req see
system.mem_ctrls.rdQLenPdf::11                      0                       # What read queue length does an incoming req see
system.mem_ctrls.rdQLenPdf::12                      0                       # What read queue length does an incoming req see
system.mem_ctrls.rdQLenPdf::13                      0                       # What read queue length does an incoming req see
system.mem_ctrls.rdQLenPdf::14                      0                       # What read queue length does an incoming req see
system.mem_ctrls.rdQLenPdf::15                      0                       # What read queue length does an incoming req see
system.mem_ctrls.rdQLenPdf::16                      0                       # What read queue length does an incoming req see
system.mem_ctrls.rdQLenPdf::17                      0                       # What read queue length does an incoming req see
system.mem_ctrls.rdQLenPdf::18                      0                       # What read queue length does an incoming req see
system.mem_ctrls.rdQLenPdf::19                      0                       # What read queue length does an incoming req see
system.mem_ctrls.rdQLenPdf::20                      0                       # What read queue length does an incoming req see
system.mem_ctrls.rdQLenPdf::21                      0                       # What read queue length does an incoming req see
system.mem_ctrls.rdQLenPdf::22                      0                       # What read queue length does an incoming req see
system.mem_ctrls.rdQLenPdf::23                      0                       # What read queue length does an incoming req see
system.mem_ctrls.rdQLenPdf::24                      0                       # What read queue length does an incoming req see
system.mem_ctrls.rdQLenPdf::25                      0                       # What read queue length does an incoming req see
system.mem_ctrls.rdQLenPdf::26                      0                       # What read queue length does an incoming req see
system.mem_ctrls.rdQLenPdf::27                      0                       # What read queue length does an incoming req see
system.mem_ctrls.rdQLenPdf::28                      0                       # What read queue length does an incoming req see
system.mem_ctrls.rdQLenPdf::29                      0                       # What read queue length does an incoming req see
system.mem_ctrls.rdQLenPdf::30                      0                       # What read queue length does an incoming req see
system.mem_ctrls.rdQLenPdf::31                      0                       # What read queue length does an incoming req see
system.mem_ctrls.wrQLenPdf::0                       1                       # What write queue length does an incoming req see
system.mem_ctrls.wrQLenPdf::1                       1                       # What write queue length does an incoming req see
system.mem_ctrls.wrQLenPdf::2                       1                       # What write queue length does an incoming req see
system.mem_ctrls.wrQLenPdf::3                       1                       # What write queue length does an incoming req see
system.mem_ctrls.wrQLenPdf::4                       1                       # What write queue length does an incoming req see
system.mem_ctrls.wrQLenPdf::5                       1                       # What write queue length does an incoming req see
system.mem_ctrls.wrQLenPdf::6                       1                       # What write queue length does an incoming req see
system.mem_ctrls.wrQLenPdf::7                       1                       # What write queue length does an incoming req see
system.mem_ctrls.wrQLenPdf::8                       1                       # What write queue length does an incoming req see
system.mem_ctrls.wrQLenPdf::9                       1                       # What write queue length does an incoming req see
system.mem_ctrls.wrQLenPdf::10                      1                       # What write queue length does an incoming req see
system.mem_ctrls.wrQLenPdf::11                      1                       # What write queue length does an incoming req see
system.mem_ctrls.wrQLenPdf::12                      1                       # What write queue length does an incoming req see
system.mem_ctrls.wrQLenPdf::13                      1                       # What write queue length does an incoming req see
system.mem_ctrls.wrQLenPdf::14                      1                       # What write queue length does an incoming req see
system.mem_ctrls.wrQLenPdf::15                   5180                       # What write queue length does an incoming req see
system.mem_ctrls.wrQLenPdf::16                   5358                       # What write queue length does an incoming req see
system.mem_ctrls.wrQLenPdf::17                   7378                       # What write queue length does an incoming req see
system.mem_ctrls.wrQLenPdf::18                   7974                       # What write queue length does an incoming req see
system.mem_ctrls.wrQLenPdf::19                   8055                       # What write queue length does an incoming req see
system.mem_ctrls.wrQLenPdf::20                   7894                       # What write queue length does an incoming req see
system.mem_ctrls.wrQLenPdf::21                   7862                       # What write queue length does an incoming req see
system.mem_ctrls.wrQLenPdf::22                   7861                       # What write queue length does an incoming req see
system.mem_ctrls.wrQLenPdf::23                   7880                       # What write queue length does an incoming req see
system.mem_ctrls.wrQLenPdf::24                   7860                       # What write queue length does an incoming req see
system.mem_ctrls.wrQLenPdf::25                   8414                       # What write queue length does an incoming req see
system.mem_ctrls.wrQLenPdf::26                   8318                       # What write queue length does an incoming req see
system.mem_ctrls.wrQLenPdf::27                   7857                       # What write queue length does an incoming req see
system.mem_ctrls.wrQLenPdf::28                   7853                       # What write queue length does an incoming req see
system.mem_ctrls.wrQLenPdf::29                   7853                       # What write queue length does an incoming req see
system.mem_ctrls.wrQLenPdf::30                   7851                       # What write queue length does an incoming req see
system.mem_ctrls.wrQLenPdf::31                   7851                       # What write queue length does an incoming req see
system.mem_ctrls.wrQLenPdf::32                   7851                       # What write queue length does an incoming req see
system.mem_ctrls.wrQLenPdf::33                      6                       # What write queue length does an incoming req see
system.mem_ctrls.wrQLenPdf::34                      0                       # What write queue length does an incoming req see
system.mem_ctrls.wrQLenPdf::35                      0                       # What write queue length does an incoming req see
system.mem_ctrls.wrQLenPdf::36                      0                       # What write queue length does an incoming req see
system.mem_ctrls.wrQLenPdf::37                      0                       # What write queue length does an incoming req see
system.mem_ctrls.wrQLenPdf::38                      0                       # What write queue length does an incoming req see
system.mem_ctrls.wrQLenPdf::39                      0                       # What write queue length does an incoming req see
system.mem_ctrls.wrQLenPdf::40                      0                       # What write queue length does an incoming req see
system.mem_ctrls.wrQLenPdf::41                      0                       # What write queue length does an incoming req see
system.mem_ctrls.wrQLenPdf::42                      0                       # What write queue length does an incoming req see
system.mem_ctrls.wrQLenPdf::43                      0                       # What write queue length does an incoming req see
system.mem_ctrls.wrQLenPdf::44                      0                       # What write queue length does an incoming req see
system.mem_ctrls.wrQLenPdf::45                      0                       # What write queue length does an incoming req see
system.mem_ctrls.wrQLenPdf::46                      0                       # What write queue length does an incoming req see
system.mem_ctrls.wrQLenPdf::47                      0                       # What write queue length does an incoming req see
system.mem_ctrls.wrQLenPdf::48                      0                       # What write queue length does an incoming req see
system.mem_ctrls.wrQLenPdf::49                      0                       # What write queue length does an incoming req see
system.mem_ctrls.wrQLenPdf::50                      0                       # What write queue length does an incoming req see
system.mem_ctrls.wrQLenPdf::51                      0                       # What write queue length does an incoming req see
system.mem_ctrls.wrQLenPdf::52                      0                       # What write queue length does an incoming req see
system.mem_ctrls.wrQLenPdf::53                      0                       # What write queue length does an incoming req see
system.mem_ctrls.wrQLenPdf::54                      0                       # What write queue length does an incoming req see
system.mem_ctrls.wrQLenPdf::55                      0                       # What write queue length does an incoming req see
system.mem_ctrls.wrQLenPdf::56                      0                       # What write queue length does an incoming req see
system.mem_ctrls.wrQLenPdf::57                      0                       # What write queue length does an incoming req see
system.mem_ctrls.wrQLenPdf::58                      0                       # What write queue length does an incoming req see
system.mem_ctrls.wrQLenPdf::59                      0                       # What write queue length does an incoming req see
system.mem_ctrls.wrQLenPdf::60                      0                       # What write queue length does an incoming req see
system.mem_ctrls.wrQLenPdf::61                      0                       # What write queue length does an incoming req see
system.mem_ctrls.wrQLenPdf::62                      0                       # What write queue length does an incoming req see
system.mem_ctrls.wrQLenPdf::63                      0                       # What write queue length does an incoming req see
system.mem_ctrls.rdPerTurnAround::samples         7851                       # Reads before turning the bus around for writes
system.mem_ctrls.rdPerTurnAround::mean      20.446185                       # Reads before turning the bus around for writes
system.mem_ctrls.rdPerTurnAround::gmean     19.348364                       # Reads before turning the bus around for writes
system.mem_ctrls.rdPerTurnAround::stdev     68.858648                       # Reads before turning the bus around for writes
system.mem_ctrls.rdPerTurnAround::0-255          7849     99.97%     99.97% # Reads before turning the bus around for writes
system.mem_ctrls.rdPerTurnAround::256-511            1      0.01%     99.99% # Reads before turning the bus around for writes
system.mem_ctrls.rdPerTurnAround::5888-6143            1      0.01%    100.00% # Reads before turning the bus around for writes
system.mem_ctrls.rdPerTurnAround::total          7851                       # Reads before turning the bus around for writes
system.mem_ctrls.wrPerTurnAround::samples         7851                       # Writes before turning the bus around for reads
system.mem_ctrls.wrPerTurnAround::mean      17.468730                       # Writes before turning the bus around for reads
system.mem_ctrls.wrPerTurnAround::gmean     17.433507                       # Writes before turning the bus around for reads
system.mem_ctrls.wrPerTurnAround::stdev      1.101538                       # Writes before turning the bus around for reads
system.mem_ctrls.wrPerTurnAround::16             2602     33.14%     33.14% # Writes before turning the bus around for reads
system.mem_ctrls.wrPerTurnAround::17               66      0.84%     33.98% # Writes before turning the bus around for reads
system.mem_ctrls.wrPerTurnAround::18             4168     53.09%     87.07% # Writes before turning the bus around for reads
system.mem_ctrls.wrPerTurnAround::19              931     11.86%     98.93% # Writes before turning the bus around for reads
system.mem_ctrls.wrPerTurnAround::20               84      1.07%    100.00% # Writes before turning the bus around for reads
system.mem_ctrls.wrPerTurnAround::total          7851                       # Writes before turning the bus around for reads
system.mem_ctrls.bytesReadWrQ                    2368                       # Total number of bytes read from write queue
system.mem_ctrls.bytesReadSys                 5138272                       # Total read bytes from the system interface side
system.mem_ctrls.bytesWrittenSys              4851008                       # Total written bytes from the system interface side
system.mem_ctrls.avgRdBWSys                     26.86                       # Average system read bandwidth in MiByte/s
system.mem_ctrls.avgWrBWSys                     25.35                       # Average system write bandwidth in MiByte/s
system.mem_ctrls.totGap                  191323286500                       # Total gap between requests
system.mem_ctrls.avgGap                     612891.54                       # Average gap between requests
system.mem_ctrls.requestorReadBytes::.cpu.inst        33600                       # Per-requestor bytes read from memory
system.mem_ctrls.requestorReadBytes::.cpu.data      5103488                       # Per-requestor bytes read from memory
system.mem_ctrls.requestorWriteBytes::.writebacks      4388704                       # Per-requestor bytes write to memory
system.mem_ctrls.requestorReadRate::.cpu.inst 175616.924419391435                       # Per-requestor bytes read from memory rate (Bytes/sec)
system.mem_ctrls.requestorReadRate::.cpu.data 26674371.022954497486                       # Per-requestor bytes read from memory rate (Bytes/sec)
system.mem_ctrls.requestorWriteRate::.writebacks 22938413.650805976242                       # Per-requestor bytes write to memory rate (Bytes/sec)
system.mem_ctrls.requestorReadAccesses::.cpu.inst         1050                       # Per-requestor read serviced memory accesses
system.mem_ctrls.requestorReadAccesses::.cpu.data       159521                       # Per-requestor read serviced memory accesses
system.mem_ctrls.requestorWriteAccesses::.writebacks       151594                       # Per-requestor write serviced memory accesses
[...]
system.mem_ctrls.dram.bw_total::.cpu.data     26680559                       # Total bandwidth to/from this memory (bytes/s)
system.mem_ctrls.dram.bw_total::total        52210912                       # Total bandwidth to/from this memory (bytes/s)
system.mem_ctrls.dram.readBursts               160534                       # Number of DRAM read bursts
system.mem_ctrls.dram.writeBursts              137147                       # Number of DRAM write bursts
system.mem_ctrls.dram.perBankRdBursts::0        10148                       # Per bank write bursts
system.mem_ctrls.dram.perBankRdBursts::1        10219                       # Per bank write bursts
system.mem_ctrls.dram.perBankRdBursts::2        10082                       # Per bank write bursts
system.mem_ctrls.dram.perBankRdBursts::3         9857                       # Per bank write bursts
system.mem_ctrls.dram.perBankRdBursts::4         9770                       # Per bank write bursts
system.mem_ctrls.dram.perBankRdBursts::5         9805                       # Per bank write bursts
system.mem_ctrls.dram.perBankRdBursts::6         9677                       # Per bank write bursts
system.mem_ctrls.dram.perBankRdBursts::7         9984                       # Per bank write bursts
system.mem_ctrls.dram.perBankRdBursts::8        11360                       # Per bank write bursts
system.mem_ctrls.dram.perBankRdBursts::9         9823                       # Per bank write bursts
system.mem_ctrls.dram.perBankRdBursts::10        10076                       # Per bank write bursts
system.mem_ctrls.dram.perBankRdBursts::11         9931                       # Per bank write bursts
system.mem_ctrls.dram.perBankRdBursts::12         9955                       # Per bank write bursts
system.mem_ctrls.dram.perBankRdBursts::13         9898                       # Per bank write bursts
system.mem_ctrls.dram.perBankRdBursts::14         9968                       # Per bank write bursts
system.mem_ctrls.dram.perBankRdBursts::15         9981                       # Per bank write bursts
system.mem_ctrls.dram.perBankWrBursts::0         8653                       # Per bank write bursts
system.mem_ctrls.dram.perBankWrBursts::1         8584                       # Per bank write bursts
system.mem_ctrls.dram.perBankWrBursts::2         8628                       # Per bank write bursts
system.mem_ctrls.dram.perBankWrBursts::3         8426                       # Per bank write bursts
system.mem_ctrls.dram.perBankWrBursts::4         8544                       # Per bank write bursts
system.mem_ctrls.dram.perBankWrBursts::5         8500                       # Per bank write bursts
system.mem_ctrls.dram.perBankWrBursts::6         8441                       # Per bank write bursts
system.mem_ctrls.dram.perBankWrBursts::7         8516                       # Per bank write bursts
system.mem_ctrls.dram.perBankWrBursts::8         8455                       # Per bank write bursts
system.mem_ctrls.dram.perBankWrBursts::9         8530                       # Per bank write bursts
system.mem_ctrls.dram.perBankWrBursts::10         8619                       # Per bank write bursts
system.mem_ctrls.dram.perBankWrBursts::11         8705                       # Per bank write bursts
system.mem_ctrls.dram.perBankWrBursts::12         8729                       # Per bank write bursts
system.mem_ctrls.dram.perBankWrBursts::13         8606                       # Per bank write bursts
system.mem_ctrls.dram.perBankWrBursts::14         8626                       # Per bank write bursts
system.mem_ctrls.dram.perBankWrBursts::15         8585                       # Per bank write bursts
system.mem_ctrls.dram.totQLat              1430738750                       # Total ticks spent queuing
system.mem_ctrls.dram.totBusLat             802670000                       # Total ticks spent in databus transfers
system.mem_ctrls.dram.totMemAccLat         4440751250                       # Total ticks spent from burst creation until serviced by the DRAM
system.mem_ctrls.dram.avgQLat                 8912.37                       # Average queueing delay per DRAM burst
system.mem_ctrls.dram.avgBusLat               5000.00                       # Average bus latency per DRAM burst
system.mem_ctrls.dram.avgMemAccLat           27662.37                       # Average memory access latency per DRAM burst
system.mem_ctrls.dram.readRowHits              115005                       # Number of row buffer hits during reads
system.mem_ctrls.dram.writeRowHits              96082                       # Number of row buffer hits during writes
system.mem_ctrls.dram.readRowHitRate            71.64                       # Row buffer hit rate for reads
system.mem_ctrls.dram.writeRowHitRate           70.06                       # Row buffer hit rate for writes
system.mem_ctrls.dram.bytesPerActivate::samples        86594                       # Bytes accessed per row activation
system.mem_ctrls.dram.bytesPerActivate::mean   220.010440                       # Bytes accessed per row activation
system.mem_ctrls.dram.bytesPerActivate::gmean   159.146077                       # Bytes accessed per row activation
system.mem_ctrls.dram.bytesPerActivate::stdev   192.454864                       # Bytes accessed per row activation
system.mem_ctrls.dram.bytesPerActivate::0-127        30956     35.75%     35.75% # Bytes accessed per row activation
system.mem_ctrls.dram.bytesPerActivate::128-255        16926     19.55%     55.29% # Bytes accessed per row activation
system.mem_ctrls.dram.bytesPerActivate::256-383        25834     29.83%     85.13% # Bytes accessed per row activation
system.mem_ctrls.dram.bytesPerActivate::384-511         4539      5.24%     90.37% # Bytes accessed per row activation
system.mem_ctrls.dram.bytesPerActivate::512-639         3273      3.78%     94.15% # Bytes accessed per row activation
system.mem_ctrls.dram.bytesPerActivate::640-767         1845      2.13%     96.28% # Bytes accessed per row activation
system.mem_ctrls.dram.bytesPerActivate::768-895         1778      2.05%     98.33% # Bytes accessed per row activation
system.mem_ctrls.dram.bytesPerActivate::896-1023          566      0.65%     98.99% # Bytes accessed per row activation
system.mem_ctrls.dram.bytesPerActivate::1024-1151          877      1.01%    100.00% # Bytes accessed per row activation
system.mem_ctrls.dram.bytesPerActivate::total        86594                       # Bytes accessed per row activation
system.mem_ctrls.dram.bytesRead              10274176                       # Total number of bytes read from DRAM
system.mem_ctrls.dram.bytesWritten            8777408                       # Total number of bytes written to DRAM
system.mem_ctrls.dram.avgRdBW               53.699976                       # Average DRAM read bandwidth in MiBytes/s
system.mem_ctrls.dram.avgWrBW               45.876827                       # Average DRAM write bandwidth in MiBytes/s
system.mem_ctrls.dram.peakBW                 12800.00                       # Theoretical peak bandwidth in MiByte/s
system.mem_ctrls.dram.busUtil                    0.78                       # Data bus utilization in percentage
system.mem_ctrls.dram.busUtilRead                0.42                       # Data bus utilization in percentage for reads
system.mem_ctrls.dram.busUtilWrite               0.36                       # Data bus utilization in percentage for writes
system.mem_ctrls.dram.pageHitRate               70.91                       # Row buffer hit rate, read and write combined
system.mem_ctrls.dram.power_state.pwrStateResidencyTicks::UNDEFINED 191325523500                       # Cumulative time (in ticks) in various power states
system.mem_ctrls.dram.rank0.actEnergy       301857780                       # Energy for activate commands per rank (pJ)
system.mem_ctrls.dram.rank0.preEnergy       160441215                       # Energy for precharge commands per rank (pJ)
system.mem_ctrls.dram.rank0.readEnergy      567929880                       # Energy for read commands per rank (pJ)
system.mem_ctrls.dram.rank0.writeEnergy     356484240                       # Energy for write commands per rank (pJ)
system.mem_ctrls.dram.rank0.refreshEnergy 15102934080.000002                       # Energy for refresh commands per rank (pJ)
system.mem_ctrls.dram.rank0.actBackEnergy  45283932150                       # Energy for active background per rank (pJ)
system.mem_ctrls.dram.rank0.preBackEnergy  35335163520                       # Energy for precharge background per rank (pJ)
system.mem_ctrls.dram.rank0.actPowerDownEnergy            0                       # Energy for active power-down per rank (pJ)
system.mem_ctrls.dram.rank0.prePowerDownEnergy            0                       # Energy for precharge power-down per rank (pJ)
system.mem_ctrls.dram.rank0.selfRefreshEnergy            0                       # Energy for self refresh per rank (pJ)
system.mem_ctrls.dram.rank0.totalEnergy   97108742865                       # Total energy per rank (pJ)
system.mem_ctrls.dram.rank0.averagePower   507.557701                       # Core power per rank (mW)
system.mem_ctrls.dram.rank0.totalIdleTime            0                       # Total Idle time Per DRAM Rank
system.mem_ctrls.dram.rank0.pwrStateTime::IDLE  91423553750                       # Time in different power states
system.mem_ctrls.dram.rank0.pwrStateTime::REF   6388720000                       # Time in different power states
system.mem_ctrls.dram.rank0.pwrStateTime::SREF            0                       # Time in different power states
system.mem_ctrls.dram.rank0.pwrStateTime::PRE_PDN            0                       # Time in different power states
system.mem_ctrls.dram.rank0.pwrStateTime::ACT  93513249750                       # Time in different power states
system.mem_ctrls.dram.rank0.pwrStateTime::ACT_PDN            0                       # Time in different power states
system.mem_ctrls.dram.rank1.actEnergy       316423380                       # Energy for activate commands per rank (pJ)
system.mem_ctrls.dram.rank1.preEnergy       168183015                       # Energy for precharge commands per rank (pJ)
system.mem_ctrls.dram.rank1.readEnergy      578282880                       # Energy for read commands per rank (pJ)
system.mem_ctrls.dram.rank1.writeEnergy     359423100                       # Energy for write commands per rank (pJ)
system.mem_ctrls.dram.rank1.refreshEnergy 15102934080.000002                       # Energy for refresh commands per rank (pJ)
system.mem_ctrls.dram.rank1.actBackEnergy  46424713620                       # Energy for active background per rank (pJ)
system.mem_ctrls.dram.rank1.preBackEnergy  34374505440                       # Energy for precharge background per rank (pJ)
system.mem_ctrls.dram.rank1.actPowerDownEnergy            0                       # Energy for active power-down per rank (pJ)
system.mem_ctrls.dram.rank1.prePowerDownEnergy            0                       # Energy for precharge power-down per rank (pJ)
system.mem_ctrls.dram.rank1.selfRefreshEnergy            0                       # Energy for self refresh per rank (pJ)
system.mem_ctrls.dram.rank1.totalEnergy   97324465515                       # Total energy per rank (pJ)
system.mem_ctrls.dram.rank1.averagePower   508.685217                       # Core power per rank (mW)
system.mem_ctrls.dram.rank1.totalIdleTime            0                       # Total Idle time Per DRAM Rank
system.mem_ctrls.dram.rank1.pwrStateTime::IDLE  88916050500                       # Time in different power states
system.mem_ctrls.dram.rank1.pwrStateTime::REF   6388720000                       # Time in different power states
system.mem_ctrls.dram.rank1.pwrStateTime::SREF            0                       # Time in different power states
system.mem_ctrls.dram.rank1.pwrStateTime::PRE_PDN            0                       # Time in different power states
system.mem_ctrls.dram.rank1.pwrStateTime::ACT  96020753000                       # Time in different power states
system.mem_ctrls.dram.rank1.pwrStateTime::ACT_PDN            0                       # Time in different power states
system.mem_ctrls.power_state.pwrStateResidencyTicks::UNDEFINED 191325523500                       # Cumulative time (in ticks) in various power states
system.membus.trans_dist::ReadResp              23016                       # Transaction distribution
system.membus.trans_dist::WritebackDirty       151594                       # Transaction distribution
system.membus.trans_dist::CleanEvict             1732                       # Transaction distribution
system.membus.trans_dist::ReadExReq            137555                       # Transaction distribution
system.membus.trans_dist::ReadExResp           137555                       # Transaction distribution
system.membus.trans_dist::ReadSharedReq         23016                       # Transaction distribution
system.membus.pkt_count_system.l2.mem_side_port::system.mem_ctrls.port       474468                       # Packet count per connected requestor and responder (bytes)
system.membus.pkt_count_system.l2.mem_side_port::total       474468                       # Packet count per connected requestor and responder (bytes)
system.membus.pkt_count::total                 474468                       # Packet count per connected requestor and responder (bytes)
system.membus.pkt_size_system.l2.mem_side_port::system.mem_ctrls.port      9989280                       # Cumulative packet size per connected requestor and responder (bytes)
system.membus.pkt_size_system.l2.mem_side_port::total      9989280                       # Cumulative packet size per connected requestor and responder (bytes)
system.membus.pkt_size::total                 9989280                       # Cumulative packet size per connected requestor and responder (bytes)
system.membus.snoops                                0                       # Total snoops (count)
system.membus.snoopTraffic                          0                       # Total snoop traffic (bytes)
system.membus.snoop_fanout::samples            160571                       # Request fanout histogram
system.membus.snoop_fanout::mean                    0                       # Request fanout histogram
system.membus.snoop_fanout::stdev                   0                       # Request fanout histogram
system.membus.snoop_fanout::underflows              0      0.00%      0.00% # Request fanout histogram
system.membus.snoop_fanout::0                  160571    100.00%    100.00% # Request fanout histogram
system.membus.snoop_fanout::1                       0      0.00%    100.00% # Request fanout histogram
system.membus.snoop_fanout::overflows               0      0.00%    100.00% # Request fanout histogram
system.membus.snoop_fanout::min_value               0                       # Request fanout histogram
system.membus.snoop_fanout::max_value               0                       # Request fanout histogram
system.membus.snoop_fanout::total              160571                       # Request fanout histogram
system.membus.power_state.pwrStateResidencyTicks::UNDEFINED 191325523500                       # Cumulative time (in ticks) in various power states
system.membus.reqLayer2.occupancy           622745000                       # Layer occupancy (ticks)
system.membus.reqLayer2.utilization               0.3                       # Layer utilization (%)
system.membus.respLayer1.occupancy          533510750                       # Layer occupancy (ticks)
system.membus.respLayer1.utilization              0.3                       # Layer utilization (%)
system.tol2bus.trans_dist::ReadResp             23903                       # Transaction distribution
system.tol2bus.trans_dist::WritebackDirty       306195                       # Transaction distribution
system.tol2bus.trans_dist::WritebackClean           21                       # Transaction distribution
system.tol2bus.trans_dist::CleanEvict          159349                       # Transaction distribution
system.tol2bus.trans_dist::ReadExReq           137555                       # Transaction distribution
system.tol2bus.trans_dist::ReadExResp          137555                       # Transaction distribution
system.tol2bus.trans_dist::ReadCleanReq          1050                       # Transaction distribution
system.tol2bus.trans_dist::ReadSharedReq        22853                       # Transaction distribution
system.tol2bus.pkt_count_system.cpu.icache.mem_side_port::system.l2.cpu_side_port         2121                       # Packet count per connected requestor and responder (bytes)
system.tol2bus.pkt_count_system.cpu.dcache.mem_side_port::system.l2.cpu_side_port       477128                       # Packet count per connected requestor and responder (bytes)
system.tol2bus.pkt_count::total                479249                       # Packet count per connected requestor and responder (bytes)
system.tol2bus.pkt_size_system.cpu.icache.mem_side_port::system.l2.cpu_side_port        34272                       # Cumulative packet size per connected requestor and responder (bytes)
system.tol2bus.pkt_size_system.cpu.dcache.mem_side_port::system.l2.cpu_side_port     10080288                       # Cumulative packet size per connected requestor and responder (bytes)
system.tol2bus.pkt_size::total               10114560                       # Cumulative packet size per connected requestor and responder (bytes)
system.tol2bus.snoops                          309232                       # Total snoops (count)
system.tol2bus.snoopTraffic                   4851008                       # Total snoop traffic (bytes)
system.tol2bus.snoop_fanout::samples           470690                       # Request fanout histogram
system.tol2bus.snoop_fanout::mean            0.334828                       # Request fanout histogram
system.tol2bus.snoop_fanout::stdev           0.471931                       # Request fanout histogram
system.tol2bus.snoop_fanout::underflows             0      0.00%      0.00% # Request fanout histogram
system.tol2bus.snoop_fanout::0                 313090     66.52%     66.52% # Request fanout histogram
system.tol2bus.snoop_fanout::1                 157600     33.48%    100.00% # Request fanout histogram
system.tol2bus.snoop_fanout::2                      0      0.00%    100.00% # Request fanout histogram
system.tol2bus.snoop_fanout::3                      0      0.00%    100.00% # Request fanout histogram
system.tol2bus.snoop_fanout::4                      0      0.00%    100.00% # Request fanout histogram
system.tol2bus.snoop_fanout::overflows              0      0.00%    100.00% # Request fanout histogram
system.tol2bus.snoop_fanout::min_value              0                       # Request fanout histogram
system.tol2bus.snoop_fanout::max_value              1                       # Request fanout histogram
system.tol2bus.snoop_fanout::total             470690                       # Request fanout histogram
system.tol2bus.power_state.pwrStateResidencyTicks::UNDEFINED 191325523500                       # Cumulative time (in ticks) in various power states
system.tol2bus.reqLayer0.occupancy          236206500                       # Layer occupancy (ticks)
system.tol2bus.reqLayer0.utilization              0.1                       # Layer utilization (%)
system.tol2bus.respLayer0.occupancy           1050000                       # Layer occupancy (ticks)
system.tol2bus.respLayer0.utilization             0.0                       # Layer utilization (%)
system.tol2bus.respLayer1.occupancy         160408000                       # Layer occupancy (ticks)
system.tol2bus.respLayer1.utilization             0.1                       # Layer utilization (%)
system.voltage_domain.voltage                       1                       # Voltage in Volts

---------- End Simulation Statistics   ----------
