
---------- Begin Simulation Statistics ----------
final_tick                               191340114500                       # Number of ticks from beginning of simulation (restored from checkpoints and never reset)
host_inst_rate                                 749691                       # Simulator instruction rate (inst/s)
host_mem_usage                                 654656                       # Number of bytes of host memory used
host_op_rate                                  1381022                       # Simulator op (including micro ops) rate (op/s)
host_seconds                                   133.39                       # Real time elapsed on the host
host_tick_rate                             1434458152                       # Simulator tick rate (ticks/s)
sim_freq                                 1000000000000                       # Frequency of simulated ticks
sim_insts                                   100000001                       # Number of instructions simulated
sim_ops                                     184212218                       # Number of ops (including micro ops) simulated
sim_seconds                                  0.191340                       # Number of seconds simulated
sim_ticks                                191340114500                       # Number of ticks simulated
system.cpu.Branches                          21138365                       # Number of branches fetched
system.cpu.committedInsts                   100000001                       # Number of instructions committed
system.cpu.committedOps                     184212218                       # Number of ops (including micro ops) committed
system.cpu.idle_fraction                            0                       # Percentage of idle cycles
system.cpu.not_idle_fraction                        1                       # Percentage of non-idle cycles
system.cpu.numCycles                        382680229                       # number of cpu cycles simulated
system.cpu.numWorkItemsCompleted                    0                       # number of work items this cpu completed
system.cpu.numWorkItemsStarted                      0                       # number of work items this cpu started
system.cpu.num_busy_cycles                  382680229                       # Number of busy cycles
system.cpu.num_cc_register_reads            110470900                       # number of times the CC registers were read
system.cpu.num_cc_register_writes            56278691                       # number of times the CC registers were written
system.cpu.num_conditional_control_insts     17377044                       # number of instructions that are conditional controls
system.cpu.num_fp_alu_accesses                4198252                       # Number of float alu accesses
system.cpu.num_fp_insts                       4198252                       # number of float instructions
system.cpu.num_fp_register_reads              4465556                       # number of times the floating registers were read
system.cpu.num_fp_register_writes             2555554                       # number of times the floating registers were written
system.cpu.num_func_calls                     1777727                       # number of times a function call or return occured
system.cpu.num_idle_cycles                          0                       # Number of idle cycles
system.cpu.num_int_alu_accesses             181168224                       # Number of integer alu accesses
system.cpu.num_int_insts                    181168224                       # number of integer instructions
system.cpu.num_int_register_reads           359599209                       # number of times the integer registers were read
system.cpu.num_int_register_writes          144214147                       # number of times the integer registers were written
system.cpu.num_load_insts                    23270941                       # Number of load instructions
system.cpu.num_mem_refs                      38707146                       # number of memory refs
system.cpu.num_store_insts                   15436205                       # Number of store instructions
system.cpu.num_vec_alu_accesses                     0                       # Number of vector alu accesses
system.cpu.num_vec_insts                            0                       # number of vector instructions
system.cpu.num_vec_register_reads                   0                       # number of times the vector registers were read
system.cpu.num_vec_register_writes                  0                       # number of times the vector registers were written
system.cpu.op_class::No_OpClass               1407926      0.76%      0.76% # Class of executed instruction
system.cpu.op_class::IntAlu                 141803021     76.98%     77.74% # Class of executed instruction
system.cpu.op_class::IntMult                   451603      0.25%     77.99% # Class of executed instruction
system.cpu.op_class::IntDiv                        28      0.00%     77.99% # Class of executed instruction
system.cpu.op_class::FloatAdd                  465164      0.25%     78.24% # Class of executed instruction
system.cpu.op_class::FloatCmp                       0      0.00%     78.24% # Class of executed instruction
system.cpu.op_class::FloatCvt                       0      0.00%     78.24% # Class of executed instruction
system.cpu.op_class::FloatMult                      0      0.00%     78.24% # Class of executed instruction
system.cpu.op_class::FloatMultAcc                   0      0.00%     78.24% # Class of executed instruction
system.cpu.op_class::FloatDiv                       0      0.00%     78.24% # Class of executed instruction
system.cpu.op_class::FloatMisc                      0      0.00%     78.24% # Class of executed instruction
system.cpu.op_class::FloatSqrt                      0      0.00%     78.24% # Class of executed instruction
system.cpu.op_class::SimdAdd                        0      0.00%     78.24% # Class of executed instruction
system.cpu.op_class::SimdAddAcc                     0      0.00%     78.24% # Class of executed instruction
system.cpu.op_class::SimdAlu                    95520      0.05%     78.29% # Class of executed instruction
system.cpu.op_class::SimdCmp                        0      0.00%     78.29% # Class of executed instruction
system.cpu.op_class::SimdCvt                   215010      0.12%     78.41% # Class of executed instruction
system.cpu.op_class::SimdMisc                 1068136      0.58%     78.99% # Class of executed instruction
system.cpu.op_class::SimdMult                       0      0.00%     78.99% # Class of executed instruction
system.cpu.op_class::SimdMultAcc                    0      0.00%     78.99% # Class of executed instruction
system.cpu.op_class::SimdShift                      0      0.00%     78.99% # Class of executed instruction
system.cpu.op_class::SimdShiftAcc                   0      0.00%     78.99% # Class of executed instruction
system.cpu.op_class::SimdDiv                        0      0.00%     78.99% # Class of executed instruction
system.cpu.op_class::SimdSqrt                       0      0.00%     78.99% # Class of executed instruction
system.cpu.op_class::SimdFloatAdd                   0      0.00%     78.99% # Class of executed instruction
system.cpu.op_class::SimdFloatAlu                   0      0.00%     78.99% # Class of executed instruction
system.cpu.op_class::SimdFloatCmp                   0      0.00%     78.99% # Class of executed instruction
system.cpu.op_class::SimdFloatCvt                   0      0.00%     78.99% # Class of executed instruction
system.cpu.op_class::SimdFloatDiv                   0      0.00%     78.99% # Class of executed instruction
system.cpu.op_class::SimdFloatMisc                  0      0.00%     78.99% # Class of executed instruction
system.cpu.op_class::SimdFloatMult                  0      0.00%     78.99% # Class of executed instruction
system.cpu.op_class::SimdFloatMultAcc               0      0.00%     78.99% # Class of executed instruction
system.cpu.op_class::SimdFloatSqrt                  0      0.00%     78.99% # Class of executed instruction
system.cpu.op_class::SimdReduceAdd                  0      0.00%     78.99% # Class of executed instruction
system.cpu.op_class::SimdReduceAlu                  0      0.00%     78.99% # Class of executed instruction
system.cpu.op_class::SimdReduceCmp                  0      0.00%     78.99% # Class of executed instruction
system.cpu.op_class::SimdFloatReduceAdd             0      0.00%     78.99% # Class of executed instruction
system.cpu.op_class::SimdFloatReduceCmp             0      0.00%     78.99% # Class of executed instruction
system.cpu.op_class::SimdAes                        0      0.00%     78.99% # Class of executed instruction
system.cpu.op_class::SimdAesMix                     0      0.00%     78.99% # Class of executed instruction
system.cpu.op_class::SimdSha1Hash                   0      0.00%     78.99% # Class of executed instruction
system.cpu.op_class::SimdSha1Hash2                  0      0.00%     78.99% # Class of executed instruction
system.cpu.op_class::SimdSha256Hash                 0      0.00%     78.99% # Class of executed instruction
system.cpu.op_class::SimdSha256Hash2                0      0.00%     78.99% # Class of executed instruction
system.cpu.op_class::SimdShaSigma2                  0      0.00%     78.99% # Class of executed instruction
system.cpu.op_class::SimdShaSigma3                  0      0.00%     78.99% # Class of executed instruction
system.cpu.op_class::SimdPredAlu                    0      0.00%     78.99% # Class of executed instruction
system.cpu.op_class::MemRead                 22624662     12.28%     91.27% # Class of executed instruction
system.cpu.op_class::MemWrite                14008515      7.60%     98.87% # Class of executed instruction
system.cpu.op_class::FloatMemRead              646279      0.35%     99.22% # Class of executed instruction
system.cpu.op_class::FloatMemWrite            1427690      0.78%    100.00% # Class of executed instruction
system.cpu.op_class::IprAccess                      0      0.00%    100.00% # Class of executed instruction
system.cpu.op_class::InstPrefetch                   0      0.00%    100.00% # Class of executed instruction
system.cpu.op_class::total                  184213554                       # Class of executed instruction
system.cpu.workload.numSyscalls                    93                       # Number of system calls
system.membus.snoop_filter.hit_multi_requests            0                       # Number of requests hitting in the snoop filter with multiple (>1) holders of the requested data.
system.membus.snoop_filter.hit_multi_snoops            0                       # Number of snoops hitting in the snoop filter with multiple (>1) holders of the requested data.
system.membus.snoop_filter.hit_single_requests       153361                       # Number of requests hitting in the snoop filter with a single holder of the requested data.
system.membus.snoop_filter.hit_single_snoops            0                       # Number of snoops hitting in the snoop filter with a single holder of the requested data.
system.membus.snoop_filter.tot_requests        313901                       # Total number of requests made to the snoop filter.
system.membus.snoop_filter.tot_snoops               0                       # Total number of snoops made to the snoop filter.
system.tol2bus.snoop_filter.hit_multi_requests            0                       # Number of requests hitting in the snoop filter with multiple (>1) holders of the requested data.
system.tol2bus.snoop_filter.hit_multi_snoops            0                       # Number of snoops hitting in the snoop filter with multiple (>1) holders of the requested data.
system.tol2bus.snoop_filter.hit_single_requests       156312                       # Number of requests hitting in the snoop filter with a single holder of the requested data.
system.tol2bus.snoop_filter.hit_single_snoops       158359                       # Number of snoops hitting in the snoop filter with a single holder of the requested data.
system.tol2bus.snoop_filter.tot_requests       317749                       # Total number of requests made to the snoop filter.
system.tol2bus.snoop_filter.tot_snoops         158359                       # Total number of snoops made to the snoop filter.
system.clk_domain.clock                          1000                       # Clock period in ticks
system.cpu.dcache.demand_hits::.cpu.data     38577830                       # number of demand (read+write) hits
system.cpu.dcache.demand_hits::total         38577830                       # number of demand (read+write) hits
system.cpu.dcache.overall_hits::.cpu.data     38577830                       # number of overall hits
system.cpu.dcache.overall_hits::total        38577830                       # number of overall hits
system.cpu.dcache.demand_misses::.cpu.data       160387                       # number of demand (read+write) misses
system.cpu.dcache.demand_misses::total         160387                       # number of demand (read+write) misses
system.cpu.dcache.overall_misses::.cpu.data       160387                       # number of overall misses
system.cpu.dcache.overall_misses::total        160387                       # number of overall misses
system.cpu.dcache.demand_miss_latency::.cpu.data  12951847500                       # number of demand (read+write) miss cycles
system.cpu.dcache.demand_miss_latency::total  12951847500                       # number of demand (read+write) miss cycles
system.cpu.dcache.overall_miss_latency::.cpu.data  12951847500                       # number of overall miss cycles
system.cpu.dcache.overall_miss_latency::total  12951847500                       # number of overall miss cycles
system.cpu.dcache.demand_accesses::.cpu.data     38738217                       # number of demand (read+write) accesses
system.cpu.dcache.demand_accesses::total     38738217                       # number of demand (read+write) accesses
system.cpu.dcache.overall_accesses::.cpu.data     38738217                       # number of overall (read+write) accesses
system.cpu.dcache.overall_accesses::total     38738217                       # number of overall (read+write) accesses
system.cpu.dcache.demand_miss_rate::.cpu.data     0.004140                       # miss rate for demand accesses
system.cpu.dcache.demand_miss_rate::total     0.004140                       # miss rate for demand accesses
system.cpu.dcache.overall_miss_rate::.cpu.data     0.004140                       # miss rate for overall accesses
system.cpu.dcache.overall_miss_rate::total     0.004140                       # miss rate for overall accesses
system.cpu.dcache.demand_avg_miss_latency::.cpu.data 80753.723806                       # average overall miss latency
system.cpu.dcache.demand_avg_miss_latency::total 80753.723806                       # average overall miss latency
system.cpu.dcache.overall_avg_miss_latency::.cpu.data 80753.723806                       # average overall miss latency
system.cpu.dcache.overall_avg_miss_latency::total 80753.723806                       # average overall miss latency
system.cpu.dcache.blocked_cycles::no_mshrs            0                       # number of cycles access was blocked
system.cpu.dcache.blocked_cycles::no_targets            0                       # number of cycles access was blocked
system.cpu.dcache.blocked::no_mshrs                 0                       # number of cycles access was blocked
system.cpu.dcache.blocked::no_targets               0                       # number of cycles access was blocked
system.cpu.dcache.avg_blocked_cycles::no_mshrs          nan                       # average number of cycles each access was blocked
system.cpu.dcache.avg_blocked_cycles::no_targets          nan                       # average number of cycles each access was blocked
system.cpu.dcache.writebacks::.writebacks       154581                       # number of writebacks
system.cpu.dcache.writebacks::total            154581                       # number of writebacks
system.cpu.dcache.demand_mshr_misses::.cpu.data       160387                       # number of demand (read+write) MSHR misses
system.cpu.dcache.demand_mshr_misses::total       160387                       # number of demand (read+write) MSHR misses
system.cpu.dcache.overall_mshr_misses::.cpu.data       160387                       # number of overall MSHR misses
system.cpu.dcache.overall_mshr_misses::total       160387                       # number of overall MSHR misses
system.cpu.dcache.demand_mshr_miss_latency::.cpu.data  12791460500                       # number of demand (read+write) MSHR miss cycles
system.cpu.dcache.demand_mshr_miss_latency::total  12791460500                       # number of demand (read+write) MSHR miss cycles
system.cpu.dcache.overall_mshr_miss_latency::.cpu.data  12791460500                       # number of overall MSHR miss cycles
system.cpu.dcache.overall_mshr_miss_latency::total  12791460500                       # number of overall MSHR miss cycles
system.cpu.dcache.demand_mshr_miss_rate::.cpu.data     0.004140                       # mshr miss rate for demand accesses
system.cpu.dcache.demand_mshr_miss_rate::total     0.004140                       # mshr miss rate for demand accesses
system.cpu.dcache.overall_mshr_miss_rate::.cpu.data     0.004140                       # mshr miss rate for overall accesses
system.cpu.dcache.overall_mshr_miss_rate::total     0.004140                       # mshr miss rate for overall accesses
system.cpu.dcache.demand_avg_mshr_miss_latency::.cpu.data 79753.723806                       # average overall mshr miss latency
system.cpu.dcache.demand_avg_mshr_miss_latency::total 79753.723806                       # average overall mshr miss latency
system.cpu.dcache.overall_avg_mshr_miss_latency::.cpu.data 79753.723806                       # average overall mshr miss latency
system.cpu.dcache.overall_avg_mshr_miss_latency::total 79753.723806                       # average overall mshr miss latency
system.cpu.dcache.replacements                 156291                       # number of replacements
system.cpu.dcache.ReadReq_hits::.cpu.data     23280416                       # number of ReadReq hits
system.cpu.dcache.ReadReq_hits::total        23280416                       # number of ReadReq hits
system.cpu.dcache.ReadReq_misses::.cpu.data        22832                       # number of ReadReq misses
system.cpu.dcache.ReadReq_misses::total         22832                       # number of ReadReq misses
system.cpu.dcache.ReadReq_miss_latency::.cpu.data   1942735500                       # number of ReadReq miss cycles
system.cpu.dcache.ReadReq_miss_latency::total   1942735500                       # number of ReadReq miss cycles
system.cpu.dcache.ReadReq_accesses::.cpu.data     23303248                       # number of ReadReq accesses(hits+misses)
system.cpu.dcache.ReadReq_accesses::total     23303248                       # number of ReadReq accesses(hits+misses)
system.cpu.dcache.ReadReq_miss_rate::.cpu.data     0.000980                       # miss rate for ReadReq accesses
system.cpu.dcache.ReadReq_miss_rate::total     0.000980                       # miss rate for ReadReq accesses
system.cpu.dcache.ReadReq_avg_miss_latency::.cpu.data 85088.275228                       # average ReadReq miss latency
system.cpu.dcache.ReadReq_avg_miss_latency::total 85088.275228                       # average ReadReq miss latency
system.cpu.dcache.ReadReq_mshr_misses::.cpu.data        22832                       # number of ReadReq MSHR misses
system.cpu.dcache.ReadReq_mshr_misses::total        22832                       # number of ReadReq MSHR misses
system.cpu.dcache.ReadReq_mshr_miss_latency::.cpu.data   1919903500                       # number of ReadReq MSHR miss cycles
system.cpu.dcache.ReadReq_mshr_miss_latency::total   1919903500                       # number of ReadReq MSHR miss cycles
system.cpu.dcache.ReadReq_mshr_miss_rate::.cpu.data     0.000980                       # mshr miss rate for ReadReq accesses
system.cpu.dcache.ReadReq_mshr_miss_rate::total     0.000980                       # mshr miss rate for ReadReq accesses
system.cpu.dcache.ReadReq_avg_mshr_miss_latency::.cpu.data 84088.275228                       # average ReadReq mshr miss latency
system.cpu.dcache.ReadReq_avg_mshr_miss_latency::total 84088.275228                       # average ReadReq mshr miss latency
system.cpu.dcache.WriteReq_hits::.cpu.data     15297414                       # number of WriteReq hits
system.cpu.dcache.WriteReq_hits::total       15297414                       # number of WriteReq hits
system.cpu.dcache.WriteReq_misses::.cpu.data       137555                       # number of WriteReq misses
system.cpu.dcache.WriteReq_misses::total       137555                       # number of WriteReq misses
system.cpu.dcache.WriteReq_miss_latency::.cpu.data  11009112000                       # number of WriteReq miss cycles
system.cpu.dcache.WriteReq_miss_latency::total  11009112000                       # number of WriteReq miss cycles
system.cpu.dcache.WriteReq_accesses::.cpu.data     15434969                       # number of WriteReq accesses(hits+misses)
system.cpu.dcache.WriteReq_accesses::total     15434969                       # number of WriteReq accesses(hits+misses)
system.cpu.dcache.WriteReq_miss_rate::.cpu.data     0.008912                       # miss rate for WriteReq accesses
system.cpu.dcache.WriteReq_miss_rate::total     0.008912                       # miss rate for WriteReq accesses
system.cpu.dcache.WriteReq_avg_miss_latency::.cpu.data 80034.255389                       # average WriteReq miss latency
system.cpu.dcache.WriteReq_avg_miss_latency::total 80034.255389                       # average WriteReq miss latency
system.cpu.dcache.WriteReq_mshr_misses::.cpu.data       137555                       # number of WriteReq MSHR misses
system.cpu.dcache.WriteReq_mshr_misses::total       137555                       # number of WriteReq MSHR misses
system.cpu.dcache.WriteReq_mshr_miss_latency::.cpu.data  10871557000                       # number of WriteReq MSHR miss cycles
system.cpu.dcache.WriteReq_mshr_miss_latency::total  10871557000                       # number of WriteReq MSHR miss cycles
system.cpu.dcache.WriteReq_mshr_miss_rate::.cpu.data     0.008912                       # mshr miss rate for WriteReq accesses
system.cpu.dcache.WriteReq_mshr_miss_rate::total     0.008912                       # mshr miss rate for WriteReq accesses
system.cpu.dcache.WriteReq_avg_mshr_miss_latency::.cpu.data 79034.255389                       # average WriteReq mshr miss latency
system.cpu.dcache.WriteReq_avg_mshr_miss_latency::total 79034.255389                       # average WriteReq mshr miss latency
system.cpu.dcache.power_state.pwrStateResidencyTicks::UNDEFINED 191340114500                       # Cumulative time (in ticks) in various power states
system.cpu.dcache.tags.tagsinuse          4080.111866                       # Cycle average of tags in use
system.cpu.dcache.tags.total_refs            38738217                       # Total number of references to valid blocks.
system.cpu.dcache.tags.sampled_refs            160387                       # Sample count of references to valid blocks.
system.cpu.dcache.tags.avg_refs            241.529656                       # Average number of references to valid blocks.
system.cpu.dcache.tags.warmup_cycle            177500                       # Cycle when the warmup percentage was hit.
system.cpu.dcache.tags.occ_blocks::.cpu.data  4080.111866                       # Average occupied blocks per requestor
system.cpu.dcache.tags.occ_percent::.cpu.data     0.996121                       # Average percentage of cache occupancy
system.cpu.dcache.tags.occ_percent::total     0.996121                       # Average percentage of cache occupancy
system.cpu.dcache.tags.occ_task_id_blocks::1024         4096                       # Occupied blocks per task id
system.cpu.dcache.tags.age_task_id_blocks_1024::0            5                       # Occupied blocks per task id
system.cpu.dcache.tags.age_task_id_blocks_1024::1           51                       # Occupied blocks per task id
system.cpu.dcache.tags.age_task_id_blocks_1024::2          581                       # Occupied blocks per task id
system.cpu.dcache.tags.age_task_id_blocks_1024::3         3134                       # Occupied blocks per task id
system.cpu.dcache.tags.age_task_id_blocks_1024::4          325                       # Occupied blocks per task id
system.cpu.dcache.tags.occ_task_id_percent::1024            1                       # Percentage of cache occupancy per task id
system.cpu.dcache.tags.tag_accesses         619971859                       # Number of tag accesses
system.cpu.dcache.tags.data_accesses        619971859                       # Number of data accesses
system.cpu.dcache.tags.power_state.pwrStateResidencyTicks::UNDEFINED 191340114500                       # Cumulative time (in ticks) in various power states
system.cpu.dtb.rdAccesses                    23303250                       # TLB accesses on read requests
system.cpu.dtb.wrAccesses                    15436210                       # TLB accesses on write requests
system.cpu.dtb.rdMisses                         21891                       # TLB misses on read requests
system.cpu.dtb.wrMisses                          2489                       # TLB misses on write requests
system.cpu.dtb.walker.power_state.pwrStateResidencyTicks::UNDEFINED 191340114500                       # Cumulative time (in ticks) in various power states
system.cpu.dtb_walker_cache.blocked_cycles::no_mshrs            0                       # number of cycles access was blocked
system.cpu.dtb_walker_cache.blocked_cycles::no_targets            0                       # number of cycles access was blocked
system.cpu.dtb_walker_cache.blocked::no_mshrs            0                       # number of cycles access was blocked
system.cpu.dtb_walker_cache.blocked::no_targets            0                       # number of cycles access was blocked
system.cpu.dtb_walker_cache.avg_blocked_cycles::no_mshrs          nan                       # average number of cycles each access was blocked
system.cpu.dtb_walker_cache.avg_blocked_cycles::no_targets          nan                       # average number of cycles each access was blocked
system.cpu.dtb_walker_cache.replacements            0                       # number of replacements
system.cpu.dtb_walker_cache.power_state.pwrStateResidencyTicks::UNDEFINED 191340114500                       # Cumulative time (in ticks) in various power states
system.cpu.dtb_walker_cache.tags.tagsinuse            0                       # Cycle average of tags in use
system.cpu.dtb_walker_cache.tags.total_refs            0                       # Total number of references to valid blocks.
system.cpu.dtb_walker_cache.tags.sampled_refs            0                       # Sample count of references to valid blocks.
system.cpu.dtb_walker_cache.tags.avg_refs          nan                       # Average number of references to valid blocks.
system.cpu.dtb_walker_cache.tags.warmup_cycle            0                       # Cycle when the warmup percentage was hit.
system.cpu.dtb_walker_cache.tags.tag_accesses            0                       # Number of tag accesses
system.cpu.dtb_walker_cache.tags.data_accesses            0                       # Number of data accesses
system.cpu.dtb_walker_cache.tags.power_state.pwrStateResidencyTicks::UNDEFINED 191340114500                       # Cumulative time (in ticks) in various power states
system.cpu.icache.demand_hits::.cpu.inst    139744651                       # number of demand (read+write) hits
system.cpu.icache.demand_hits::total        139744651                       # number of demand (read+write) hits
system.cpu.icache.overall_hits::.cpu.inst    139744651                       # number of overall hits
system.cpu.icache.overall_hits::total       139744651                       # number of overall hits
system.cpu.icache.demand_misses::.cpu.inst         1050                       # number of demand (read+write) misses
system.cpu.icache.demand_misses::total           1050                       # number of demand (read+write) misses
system.cpu.icache.overall_misses::.cpu.inst         1050                       # number of overall misses
system.cpu.icache.overall_misses::total          1050                       # number of overall misses
system.cpu.icache.demand_miss_latency::.cpu.inst     82356000                       # number of demand (read+write) miss cycles
system.cpu.icache.demand_miss_latency::total     82356000                       # number of demand (read+write) miss cycles
system.cpu.icache.overall_miss_latency::.cpu.inst     82356000                       # number of overall miss cycles
system.cpu.icache.overall_miss_latency::total     82356000                       # number of overall miss cycles
system.cpu.icache.demand_accesses::.cpu.inst    139745701                       # number of demand (read+write) accesses
system.cpu.icache.demand_accesses::total    139745701                       # number of demand (read+write) accesses
system.cpu.icache.overall_accesses::.cpu.inst    139745701                       # number of overall (read+write) accesses
system.cpu.icache.overall_accesses::total    139745701                       # number of overall (read+write) accesses
system.cpu.icache.demand_miss_rate::.cpu.inst     0.000008                       # miss rate for demand accesses
system.cpu.icache.demand_miss_rate::total     0.000008                       # miss rate for demand accesses
system.cpu.icache.overall_miss_rate::.cpu.inst     0.000008                       # miss rate for overall accesses
system.cpu.icache.overall_miss_rate::total     0.000008                       # miss rate for overall accesses
system.cpu.icache.demand_avg_miss_latency::.cpu.inst 78434.285714                       # average overall miss latency
system.cpu.icache.demand_avg_miss_latency::total 78434.285714                       # average overall miss latency
system.cpu.icache.overall_avg_miss_latency::.cpu.inst 78434.285714                       # average overall miss latency
system.cpu.icache.overall_avg_miss_latency::total 78434.285714                       # average overall miss latency
system.cpu.icache.blocked_cycles::no_mshrs            0                       # number of cycles access was blocked
system.cpu.icache.blocked_cycles::no_targets            0                       # number of cycles access was blocked
system.cpu.icache.blocked::no_mshrs                 0                       # number of cycles access was blocked
system.cpu.icache.blocked::no_targets               0                       # number of cycles access was blocked
system.cpu.icache.avg_blocked_cycles::no_mshrs          nan                       # average number of cycles each access was blocked
system.cpu.icache.avg_blocked_cycles::no_targets          nan                       # average number of cycles each access was blocked
system.cpu.icache.writebacks::.writebacks           21                       # number of writebacks
system.cpu.icache.writebacks::total                21                       # number of writebacks
system.cpu.icache.demand_mshr_misses::.cpu.inst         1050                       # number of demand (read+write) MSHR misses
system.cpu.icache.demand_mshr_misses::total         1050                       # number of demand (read+write) MSHR misses
system.cpu.icache.overall_mshr_misses::.cpu.inst         1050                       # number of overall MSHR misses
system.cpu.icache.overall_mshr_misses::total         1050                       # number of overall MSHR misses
system.cpu.icache.demand_mshr_miss_latency::.cpu.inst     81306000                       # number of demand (read+write) MSHR miss cycles
system.cpu.icache.demand_mshr_miss_latency::total     81306000                       # number of demand (read+write) MSHR miss cycles
system.cpu.icache.overall_mshr_miss_latency::.cpu.inst     81306000                       # number of overall MSHR miss cycles
system.cpu.icache.overall_mshr_miss_latency::total     81306000                       # number of overall MSHR miss cycles
system.cpu.icache.demand_mshr_miss_rate::.cpu.inst     0.000008                       # mshr miss rate for demand accesses
system.cpu.icache.demand_mshr_miss_rate::total     0.000008                       # mshr miss rate for demand accesses
system.cpu.icache.overall_mshr_miss_rate::.cpu.inst     0.000008                       # mshr miss rate for overall accesses
system.cpu.icache.overall_mshr_miss_rate::total     0.000008                       # mshr miss rate for overall accesses
system.cpu.icache.demand_avg_mshr_miss_latency::.cpu.inst 77434.285714                       # average overall mshr miss latency
system.cpu.icache.demand_avg_mshr_miss_latency::total 77434.285714                       # average overall mshr miss latency
system.cpu.icache.overall_avg_mshr_miss_latency::.cpu.inst 77434.285714                       # average overall mshr miss latency
system.cpu.icache.overall_avg_mshr_miss_latency::total 77434.285714                       # average overall mshr miss latency
system.cpu.icache.replacements                     21                       # number of replacements
system.cpu.icache.ReadReq_hits::.cpu.inst    139744651                       # number of ReadReq hits
system.cpu.icache.ReadReq_hits::total       139744651                       # number of ReadReq hits
system.cpu.icache.ReadReq_misses::.cpu.inst         1050                       # number of ReadReq misses
system.cpu.icache.ReadReq_misses::total          1050                       # number of ReadReq misses
system.cpu.icache.ReadReq_miss_latency::.cpu.inst     82356000                       # number of ReadReq miss cycles
system.cpu.icache.ReadReq_miss_latency::total     82356000                       # number of ReadReq miss cycles
system.cpu.icache.ReadReq_accesses::.cpu.inst    139745701                       # number of ReadReq accesses(hits+misses)
system.cpu.icache.ReadReq_accesses::total    139745701                       # number of ReadReq accesses(hits+misses)
system.cpu.icache.ReadReq_miss_rate::.cpu.inst     0.000008                       # miss rate for ReadReq accesses
system.cpu.icache.ReadReq_miss_rate::total     0.000008                       # miss rate for ReadReq accesses
system.cpu.icache.ReadReq_avg_miss_latency::.cpu.inst 78434.285714                       # average ReadReq miss latency
system.cpu.icache.ReadReq_avg_miss_latency::total 78434.285714                       # average ReadReq miss latency
system.cpu.icache.ReadReq_mshr_misses::.cpu.inst         1050                       # number of ReadReq MSHR misses
system.cpu.icache.ReadReq_mshr_misses::total         1050                       # number of ReadReq MSHR misses
system.cpu.icache.ReadReq_mshr_miss_latency::.cpu.inst     81306000                       # number of ReadReq MSHR miss cycles
system.cpu.icache.ReadReq_mshr_miss_latency::total     81306000                       # number of ReadReq MSHR miss cycles
system.cpu.icache.ReadReq_mshr_miss_rate::.cpu.inst     0.000008                       # mshr miss rate for ReadReq accesses
system.cpu.icache.ReadReq_mshr_miss_rate::total     0.000008                       # mshr miss rate for ReadReq accesses
system.cpu.icache.ReadReq_avg_mshr_miss_latency::.cpu.inst 77434.285714                       # average ReadReq mshr miss latency
system.cpu.icache.ReadReq_avg_mshr_miss_latency::total 77434.285714                       # average ReadReq mshr miss latency
system.cpu.icache.power_state.pwrStateResidencyTicks::UNDEFINED 191340114500                       # Cumulative time (in ticks) in various power states
system.cpu.icache.tags.tagsinuse          1024.446835                       # Cycle average of tags in use
system.cpu.icache.tags.total_refs           139745701                       # Total number of references to valid blocks.
system.cpu.icache.tags.sampled_refs              1050                       # Sample count of references to valid blocks.
system.cpu.icache.tags.avg_refs          133091.143810                       # Average number of references to valid blocks.
system.cpu.icache.tags.warmup_cycle             87500                       # Cycle when the warmup percentage was hit.
system.cpu.icache.tags.occ_blocks::.cpu.inst  1024.446835                       # Average occupied blocks per requestor
system.cpu.icache.tags.occ_percent::.cpu.inst     0.250109                       # Average percentage of cache occupancy
system.cpu.icache.tags.occ_percent::total     0.250109                       # Average percentage of cache occupancy
system.cpu.icache.tags.occ_task_id_blocks::1024         1029                       # Occupied blocks per task id
system.cpu.icache.tags.age_task_id_blocks_1024::4         1029                       # Occupied blocks per task id
system.cpu.icache.tags.occ_task_id_percent::1024     0.251221                       # Percentage of cache occupancy per task id
system.cpu.icache.tags.tag_accesses         279492452                       # Number of tag accesses
system.cpu.icache.tags.data_accesses        279492452                       # Number of data accesses
system.cpu.icache.tags.power_state.pwrStateResidencyTicks::UNDEFINED 191340114500                       # Cumulative time (in ticks) in various power states
system.cpu.interrupts.clk_domain.clock           8000                       # Clock period in ticks
system.cpu.itb.rdAccesses                           0                       # TLB accesses on read requests
system.cpu.itb.wrAccesses                   139745701                       # TLB accesses on write requests
system.cpu.itb.rdMisses                             0                       # TLB misses on read requests
system.cpu.itb.wrMisses                            51                       # TLB misses on write requests
system.cpu.itb.walker.power_state.pwrStateResidencyTicks::UNDEFINED 191340114500                       # Cumulative time (in ticks) in various power states
system.cpu.itb_walker_cache.blocked_cycles::no_mshrs            0                       # number of cycles access was blocked
system.cpu.itb_walker_cache.blocked_cycles::no_targets            0                       # number of cycles access was blocked
system.cpu.itb_walker_cache.blocked::no_mshrs            0                       # number of cycles access was blocked
system.cpu.itb_walker_cache.blocked::no_targets            0                       # number of cycles access was blocked
system.cpu.itb_walker_cache.avg_blocked_cycles::no_mshrs          nan                       # average number of cycles each access was blocked
system.cpu.itb_walker_cache.avg_blocked_cycles::no_targets          nan                       # average number of cycles each access was blocked
system.cpu.itb_walker_cache.replacements            0                       # number of replacements
system.cpu.itb_walker_cache.power_state.pwrStateResidencyTicks::UNDEFINED 191340114500                       # Cumulative time (in ticks) in various power states
system.cpu.itb_walker_cache.tags.tagsinuse            0                       # Cycle average of tags in use
system.cpu.itb_walker_cache.tags.total_refs            0                       # Total number of references to valid blocks.
system.cpu.itb_walker_cache.tags.sampled_refs            0                       # Sample count of references to valid blocks.
system.cpu.itb_walker_cache.tags.avg_refs          nan                       # Average number of references to valid blocks.
system.cpu.itb_walker_cache.tags.warmup_cycle            0                       # Cycle when the warmup percentage was hit.
system.cpu.itb_walker_cache.tags.tag_accesses            0                       # Number of tag accesses
system.cpu.itb_walker_cache.tags.data_accesses            0                       # Number of data accesses
system.cpu.itb_walker_cache.tags.power_state.pwrStateResidencyTicks::UNDEFINED 191340114500                       # Cumulative time (in ticks) in various power states
system.cpu.power_state.pwrStateResidencyTicks::ON 191340114500                       # Cumulative time (in ticks) in various power states
system.cpu.thread_0.numInsts                        0                       # Number of Instructions committed
system.cpu.thread_0.numOps                          0                       # Number of Ops committed
system.cpu.thread_0.numMemRefs                      0                       # Number of Memory References
system.cpu_clk_domain.clock                       500                       # Clock period in ticks
system.cpu_voltage_domain.voltage                   1                       # Voltage in Volts
system.l2.demand_hits::.cpu.data                  897                       # number of demand (read+write) hits
system.l2.demand_hits::total                      897                       # number of demand (read+write) hits
system.l2.overall_hits::.cpu.data                 897                       # number of overall hits
system.l2.overall_hits::total                     897                       # number of overall hits
system.l2.demand_misses::.cpu.inst               1050                       # number of demand (read+write) misses
system.l2.demand_misses::.cpu.data             159490                       # number of demand (read+write) misses
system.l2.demand_misses::total                 160540                       # number of demand (read+write) misses
system.l2.overall_misses::.cpu.inst              1050                       # number of overall misses
system.l2.overall_misses::.cpu.data            159490                       # number of overall misses
system.l2.overall_misses::total                160540                       # number of overall misses
system.l2.demand_miss_latency::.cpu.inst     79731000                       # number of demand (read+write) miss cycles
system.l2.demand_miss_latency::.cpu.data  12541461500                       # number of demand (read+write) miss cycles
system.l2.demand_miss_latency::total      12621192500                       # number of demand (read+write) miss cycles
system.l2.overall_miss_latency::.cpu.inst     79731000                       # number of overall miss cycles
system.l2.overall_miss_latency::.cpu.data  12541461500                       # number of overall miss cycles
system.l2.overall_miss_latency::total     12621192500                       # number of overall miss cycles
system.l2.demand_accesses::.cpu.inst             1050                       # number of demand (read+write) accesses
system.l2.demand_accesses::.cpu.data           160387                       # number of demand (read+write) accesses
system.l2.demand_accesses::total               161437                       # number of demand (read+write) accesses
system.l2.overall_accesses::.cpu.inst            1050                       # number of overall (read+write) accesses
system.l2.overall_accesses::.cpu.data          160387                       # number of overall (read+write) accesses
system.l2.overall_accesses::total              161437                       # number of overall (read+write) accesses
system.l2.demand_miss_rate::.cpu.inst               1                       # miss rate for demand accesses
system.l2.demand_miss_rate::.cpu.data        0.994407                       # miss rate for demand accesses
system.l2.demand_miss_rate::total            0.994444                       # miss rate for demand accesses
system.l2.overall_miss_rate::.cpu.inst              1                       # miss rate for overall accesses
system.l2.overall_miss_rate::.cpu.data       0.994407                       # miss rate for overall accesses
system.l2.overall_miss_rate::total           0.994444                       # miss rate for overall accesses
system.l2.demand_avg_miss_latency::.cpu.inst 75934.285714                       # average overall miss latency
system.l2.demand_avg_miss_latency::.cpu.data 78634.782745                       # average overall miss latency
system.l2.demand_avg_miss_latency::total 78617.120344                       # average overall miss latency
system.l2.overall_avg_miss_latency::.cpu.inst 75934.285714                       # average overall miss latency
system.l2.overall_avg_miss_latency::.cpu.data 78634.782745                       # average overall miss latency
system.l2.overall_avg_miss_latency::total 78617.120344                       # average overall miss latency
system.l2.blocked_cycles::no_mshrs                  0                       # number of cycles access was blocked
system.l2.blocked_cycles::no_targets                0                       # number of cycles access was blocked
system.l2.blocked::no_mshrs                         0                       # number of cycles access was blocked
system.l2.blocked::no_targets                       0                       # number of cycles access was blocked
system.l2.avg_blocked_cycles::no_mshrs            nan                       # average number of cycles each access was blocked
system.l2.avg_blocked_cycles::no_targets          nan                       # average number of cycles each access was blocked
system.l2.writebacks::.writebacks              151630                       # number of writebacks
system.l2.writebacks::total                    151630                       # number of writebacks
system.l2.demand_mshr_misses::.cpu.inst          1050                       # number of demand (read+write) MSHR misses
system.l2.demand_mshr_misses::.cpu.data        159490                       # number of demand (read+write) MSHR misses
system.l2.demand_mshr_misses::total            160540                       # number of demand (read+write) MSHR misses
system.l2.overall_mshr_misses::.cpu.inst         1050                       # number of overall MSHR misses
system.l2.overall_mshr_misses::.cpu.data       159490                       # number of overall MSHR misses
system.l2.overall_mshr_misses::total           160540                       # number of overall MSHR misses
system.l2.demand_mshr_miss_latency::.cpu.inst     69231000                       # number of demand (read+write) MSHR miss cycles
system.l2.demand_mshr_miss_latency::.cpu.data  10946561500                       # number of demand (read+write) MSHR miss cycles
system.l2.demand_mshr_miss_latency::total  11015792500                       # number of demand (read+write) MSHR miss cycles
system.l2.overall_mshr_miss_latency::.cpu.inst     69231000                       # number of overall MSHR miss cycles
system.l2.overall_mshr_miss_latency::.cpu.data  10946561500                       # number of overall MSHR miss cycles
system.l2.overall_mshr_miss_latency::total  11015792500                       # number of overall MSHR miss cycles
system.l2.demand_mshr_miss_rate::.cpu.inst            1                       # mshr miss rate for demand accesses
system.l2.demand_mshr_miss_rate::.cpu.data     0.994407                       # mshr miss rate for demand accesses
system.l2.demand_mshr_miss_rate::total       0.994444                       # mshr miss rate for demand accesses
system.l2.overall_mshr_miss_rate::.cpu.inst            1                       # mshr miss rate for overall accesses
system.l2.overall_mshr_miss_rate::.cpu.data     0.994407                       # mshr miss rate for overall accesses
system.l2.overall_mshr_miss_rate::total      0.994444                       # mshr miss rate for overall accesses
system.l2.demand_avg_mshr_miss_latency::.cpu.inst 65934.285714                       # average overall mshr miss latency
system.l2.demand_avg_mshr_miss_latency::.cpu.data 68634.782745                       # average overall mshr miss latency
system.l2.demand_avg_mshr_miss_latency::total 68617.120344                       # average overall mshr miss latency
system.l2.overall_avg_mshr_miss_latency::.cpu.inst 65934.285714                       # average overall mshr miss latency
system.l2.overall_avg_mshr_miss_latency::.cpu.data 68634.782745                       # average overall mshr miss latency
system.l2.overall_avg_mshr_miss_latency::total 68617.120344                       # average overall mshr miss latency
system.l2.replacements                         310031                       # number of replacements
system.l2.WritebackDirty_hits::.writebacks       154581                       # number of WritebackDirty hits
system.l2.WritebackDirty_hits::total           154581                       # number of WritebackDirty hits
system.l2.WritebackDirty_accesses::.writebacks       154581                       # number of WritebackDirty accesses(hits+misses)
system.l2.WritebackDirty_accesses::total       154581                       # number of WritebackDirty accesses(hits+misses)
system.l2.WritebackClean_hits::.writebacks           21                       # number of WritebackClean hits
system.l2.WritebackClean_hits::total               21                       # number of WritebackClean hits
system.l2.WritebackClean_accesses::.writebacks           21                       # number of WritebackClean accesses(hits+misses)
system.l2.WritebackClean_accesses::total           21                       # number of WritebackClean accesses(hits+misses)
system.l2.CleanEvict_mshr_misses::.writebacks         1689                       # number of CleanEvict MSHR misses
system.l2.CleanEvict_mshr_misses::total          1689                       # number of CleanEvict MSHR misses
system.l2.CleanEvict_mshr_miss_rate::.writebacks          inf                       # mshr miss rate for CleanEvict accesses
system.l2.CleanEvict_mshr_miss_rate::total          inf                       # mshr miss rate for CleanEvict accesses
system.l2.ReadExReq_misses::.cpu.data          137555                       # number of ReadExReq misses
system.l2.ReadExReq_misses::total              137555                       # number of ReadExReq misses
system.l2.ReadExReq_miss_latency::.cpu.data  10665224500                       # number of ReadExReq miss cycles
system.l2.ReadExReq_miss_latency::total   10665224500                       # number of ReadExReq miss cycles
system.l2.ReadExReq_accesses::.cpu.data        137555                       # number of ReadExReq accesses(hits+misses)
system.l2.ReadExReq_accesses::total            137555                       # number of ReadExReq accesses(hits+misses)
system.l2.ReadExReq_miss_rate::.cpu.data            1                       # miss rate for ReadExReq accesses
system.l2.ReadExReq_miss_rate::total                1                       # miss rate for ReadExReq accesses
system.l2.ReadExReq_avg_miss_latency::.cpu.data 77534.255389                       # average ReadExReq miss latency
system.l2.ReadExReq_avg_miss_latency::total 77534.255389                       # average ReadExReq miss latency
system.l2.ReadExReq_mshr_misses::.cpu.data       137555                       # number of ReadExReq MSHR misses
system.l2.ReadExReq_mshr_misses::total         137555                       # number of ReadExReq MSHR misses
system.l2.ReadExReq_mshr_miss_latency::.cpu.data   9289674500                       # number of ReadExReq MSHR miss cycles
system.l2.ReadExReq_mshr_miss_latency::total   9289674500                       # number of ReadExReq MSHR miss cycles
system.l2.ReadExReq_mshr_miss_rate::.cpu.data            1                       # mshr miss rate for ReadExReq accesses
system.l2.ReadExReq_mshr_miss_rate::total            1                       # mshr miss rate for ReadExReq accesses
system.l2.ReadExReq_avg_mshr_miss_latency::.cpu.data 67534.255389                       # average ReadExReq mshr miss latency
system.l2.ReadExReq_avg_mshr_miss_latency::total 67534.255389                       # average ReadExReq mshr miss latency
system.l2.ReadCleanReq_misses::.cpu.inst         1050                       # number of ReadCleanReq misses
system.l2.ReadCleanReq_misses::total             1050                       # number of ReadCleanReq misses
system.l2.ReadCleanReq_miss_latency::.cpu.inst     79731000                       # number of ReadCleanReq miss cycles
system.l2.ReadCleanReq_miss_latency::total     79731000                       # number of ReadCleanReq miss cycles
system.l2.ReadCleanReq_accesses::.cpu.inst         1050                       # number of ReadCleanReq accesses(hits+misses)
system.l2.ReadCleanReq_accesses::total           1050                       # number of ReadCleanReq accesses(hits+misses)
system.l2.ReadCleanReq_miss_rate::.cpu.inst            1                       # miss rate for ReadCleanReq accesses
system.l2.ReadCleanReq_miss_rate::total             1                       # miss rate for ReadCleanReq accesses
system.l2.ReadCleanReq_avg_miss_latency::.cpu.inst 75934.285714                       # average ReadCleanReq miss latency
system.l2.ReadCleanReq_avg_miss_latency::total 75934.285714                       # average ReadCleanReq miss latency
system.l2.ReadCleanReq_mshr_misses::.cpu.inst         1050                       # number of ReadCleanReq MSHR misses
system.l2.ReadCleanReq_mshr_misses::total         1050                       # number of ReadCleanReq MSHR misses
system.l2.ReadCleanReq_mshr_miss_latency::.cpu.inst     69231000                       # number of ReadCleanReq MSHR miss cycles
system.l2.ReadCleanReq_mshr_miss_latency::total     69231000                       # number of ReadCleanReq MSHR miss cycles
system.l2.ReadCleanReq_mshr_miss_rate::.cpu.inst            1                       # mshr miss rate for ReadCleanReq accesses
system.l2.ReadCleanReq_mshr_miss_rate::total            1                       # mshr miss rate for ReadCleanReq accesses
system.l2.ReadCleanReq_avg_mshr_miss_latency::.cpu.inst 65934.285714                       # average ReadCleanReq mshr miss latency
system.l2.ReadCleanReq_avg_mshr_miss_latency::total 65934.285714                       # average ReadCleanReq mshr miss latency
system.l2.ReadSharedReq_hits::.cpu.data           897                       # number of ReadSharedReq hits
system.l2.ReadSharedReq_hits::total               897                       # number of ReadSharedReq hits
system.l2.ReadSharedReq_misses::.cpu.data        21935                       # number of ReadSharedReq misses
system.l2.ReadSharedReq_misses::total           21935                       # number of ReadSharedReq misses
system.l2.ReadSharedReq_miss_latency::.cpu.data   1876237000                       # number of ReadSharedReq miss cycles
system.l2.ReadSharedReq_miss_latency::total   1876237000                       # number of ReadSharedReq miss cycles
system.l2.ReadSharedReq_accesses::.cpu.data        22832                       # number of ReadSharedReq accesses(hits+misses)
system.l2.ReadSharedReq_accesses::total         22832                       # number of ReadSharedReq accesses(hits+misses)
system.l2.ReadSharedReq_miss_rate::.cpu.data     0.960713                       # miss rate for ReadSharedReq accesses
system.l2.ReadSharedReq_miss_rate::total     0.960713                       # miss rate for ReadSharedReq accesses
system.l2.ReadSharedReq_avg_miss_latency::.cpu.data 85536.220652                       # average ReadSharedReq miss latency
system.l2.ReadSharedReq_avg_miss_latency::total 85536.220652                       # average ReadSharedReq miss latency
system.l2.ReadSharedReq_mshr_misses::.cpu.data        21935                       # number of ReadSharedReq MSHR misses
system.l2.ReadSharedReq_mshr_misses::total        21935                       # number of ReadSharedReq MSHR misses
system.l2.ReadSharedReq_mshr_miss_latency::.cpu.data   1656887000                       # number of ReadSharedReq MSHR miss cycles
system.l2.ReadSharedReq_mshr_miss_latency::total   1656887000                       # number of ReadSharedReq MSHR miss cycles
system.l2.ReadSharedReq_mshr_miss_rate::.cpu.data     0.960713                       # mshr miss rate for ReadSharedReq accesses
system.l2.ReadSharedReq_mshr_miss_rate::total     0.960713                       # mshr miss rate for ReadSharedReq accesses
system.l2.ReadSharedReq_avg_mshr_miss_latency::.cpu.data 75536.220652                       # average ReadSharedReq mshr miss latency
system.l2.ReadSharedReq_avg_mshr_miss_latency::total 75536.220652                       # average ReadSharedReq mshr miss latency
system.l2.power_state.pwrStateResidencyTicks::UNDEFINED 191340114500                       # Cumulative time (in ticks) in various power states
system.l2.tags.tagsinuse                  4083.228269                       # Cycle average of tags in use
system.l2.tags.total_refs                      316060                       # Total number of references to valid blocks.
system.l2.tags.sampled_refs                    314127                       # Sample count of references to valid blocks.
system.l2.tags.avg_refs                      1.006154                       # Average number of references to valid blocks.
system.l2.tags.warmup_cycle                     77000                       # Cycle when the warmup percentage was hit.
system.l2.tags.occ_blocks::.writebacks    2042.693014                       # Average occupied blocks per requestor
system.l2.tags.occ_blocks::.cpu.inst         5.731770                       # Average occupied blocks per requestor
system.l2.tags.occ_blocks::.cpu.data      2034.803485                       # Average occupied blocks per requestor
system.l2.tags.occ_percent::.writebacks      0.498704                       # Average percentage of cache occupancy
system.l2.tags.occ_percent::.cpu.inst        0.001399                       # Average percentage of cache occupancy
system.l2.tags.occ_percent::.cpu.data        0.496778                       # Average percentage of cache occupancy
system.l2.tags.occ_percent::total            0.996882                       # Average percentage of cache occupancy
system.l2.tags.occ_task_id_blocks::1024          4096                       # Occupied blocks per task id
system.l2.tags.age_task_id_blocks_1024::0           10                       # Occupied blocks per task id
system.l2.tags.age_task_id_blocks_1024::1          102                       # Occupied blocks per task id
system.l2.tags.age_task_id_blocks_1024::2         1114                       # Occupied blocks per task id
system.l2.tags.age_task_id_blocks_1024::3         2870                       # Occupied blocks per task id
system.l2.tags.occ_task_id_percent::1024            1                       # Percentage of cache occupancy per task id
system.l2.tags.tag_accesses                    949625                       # Number of tag accesses
system.l2.tags.data_accesses                   949625                       # Number of data accesses
system.l2.tags.power_state.pwrStateResidencyTicks::UNDEFINED 191340114500                       # Cumulative time (in ticks) in various power states
system.mem_ctrls.avgPriority_.writebacks::samples    143051.00                       # Average QoS priority value for accepted requests
system.mem_ctrls.avgPriority_.cpu.inst::samples      1050.00                       # Average QoS priority value for accepted requests
system.mem_ctrls.avgPriority_.cpu.data::samples    159460.00                       # Average QoS priority value for accepted requests
system.mem_ctrls.priorityMinLatency      0.000000018750                       # per QoS priority minimum request to response latency (s)
system.mem_ctrls.priorityMaxLatency      0.001011092500                       # per QoS priority maximum request to response latency (s)
system.mem_ctrls.numReadWriteTurnArounds         8190                       # Number of turnarounds from READ to WRITE
system.mem_ctrls.numWriteReadTurnArounds         8190                       # Number of turnarounds from WRITE to READ
system.mem_ctrls.numStayReadState              516260                       # Number of times bus staying in READ state
system.mem_ctrls.numStayWriteState             134990                       # Number of times bus staying in WRITE state
system.mem_ctrls.readReqs                      160540                       # Number of read requests accepted
system.mem_ctrls.writeReqs                     151630                       # Number of write requests accepted
system.mem_ctrls.readBursts                    160540                       # Number of controller read bursts, including those serviced by the write queue
system.mem_ctrls.writeBursts                   151630                       # Number of controller write bursts, including those merged in the write queue
system.mem_ctrls.servicedByWrQ                     30                       # Number of controller read bursts serviced by the write queue
system.mem_ctrls.mergedWrBursts                  8579                       # Number of controller write bursts merged with an existing one
system.mem_ctrls.neitherReadNorWriteReqs            0                       # Number of requests that are neither read nor write
system.mem_ctrls.avgRdQLen                       1.00                       # Average read queue length when enqueuing
system.mem_ctrls.avgWrQLen                      24.57                       # Average write queue length when enqueuing
system.mem_ctrls.numRdRetry                         0                       # Number of times read queue was full causing retry
system.mem_ctrls.numWrRetry                         0                       # Number of times write queue was full causing retry
system.mem_ctrls.readPktSize::0                     0                       # Read request sizes (log2)
system.mem_ctrls.readPktSize::1                     0                       # Read request sizes (log2)
system.mem_ctrls.readPktSize::2                     0                       # Read request sizes (log2)
system.mem_ctrls.readPktSize::3                     0                       # Read request sizes (log2)
system.mem_ctrls.readPktSize::4                     0                       # Read request sizes (log2)
system.mem_ctrls.readPktSize::5                160540                       # Read request sizes (log2)
system.mem_ctrls.writePktSize::0                    0                       # Write request sizes (log2)
system.mem_ctrls.writePktSize::1                    0                       # Write request sizes (log2)
system.mem_ctrls.writePktSize::2                    0                       # Write request sizes (log2)
system.mem_ctrls.writePktSize::3                    0                       # Write request sizes (log2)
system.mem_ctrls.writePktSize::4                    0                       # Write request sizes (log2)
system.mem_ctrls.writePktSize::5               151630                       # Write request sizes (log2)
system.mem_ctrls.rdQLenPdf::0                  160510                       # What read queue length does an incoming req see
system.mem_ctrls.rdQLenPdf::1                       0                       # What read queue length does an incoming req see
system.mem_ctrls.rdQLenPdf::2                       0                       # What read queue length does an incoming req see
system.mem_ctrls.rdQLenPdf::3                       0                       # What read queue length does an incoming req see
system.mem_ctrls.rdQLenPdf::4                       0                       # What read queue length does an incoming req see
system.mem_ctrls.rdQLenPdf::5                       0                       # What read queue length does an incoming req see
system.mem_ctrls.rdQLenPdf::6                       0                       # What read queue length does an incoming req see
system.mem_ctrls.rdQLenPdf::7                       0                       # What read queue length does an incoming req see
system.mem_ctrls.rdQLenPdf::8                       0                       # What read queue length does an incoming req see
system.mem_ctrls.rdQLenPdf::9                       0                       # What read queue length does an incoming req see
system.mem_ctrls.rdQLenPdf::10                      0                       # What read queue length does an incoming req see
system.mem_ctrls.rdQLenPdf::11                      0                       # What read queue length does an incoming req see
system.mem_ctrls.rdQLenPdf::12                      0                       # What read queue length does an incoming req see
system.mem_ctrls.rdQLenPdf::13                      0                       # What read queue length does an incoming req see
system.mem_ctrls.rdQLenPdf::14                      0                       # What read queue length does an incoming req see
system.mem_ctrls.rdQLenPdf::15                      0                       # What read queue length does an incoming req see
system.mem_ctrls.rdQLenPdf::16                      0                       # What read queue length does an incoming req see
system.mem_ctrls.rdQLenPdf::17                      0                       # What read queue length does an incoming req see
system.mem_ctrls.rdQLenPdf::18                      0                       # What read queue length does an incoming req see
system.mem_ctrls.rdQLenPdf::19                      0                       # What read queue length does an incoming req see
system.mem_ctrls.rdQLenPdf::20                      0                       # What read queue length does an incoming req see
system.mem_ctrls.rdQLenPdf::21                      0                       # What read queue length does an incoming req see
system.mem_ctrls.rdQLenPdf::22                      0                       # What read queue length does an incoming req see
system.mem_ctrls.rdQLenPdf::23                      0                       # What read queue length does an incoming req see
system.mem_ctrls.rdQLenPdf::24                      0                       # What read queue length does an incoming req see
system.mem_ctrls.rdQLenPdf::25                      0                       # What read queue length does an incoming req see
system.mem_ctrls.rdQLenPdf::26                      0                       # What read queue length does an incoming req see
system.mem_ctrls.rdQLenPdf::27                      0                       # What read queue length does an incoming req see
system.mem_ctrls.rdQLenPdf::28                      0                       # What read queue length does an incoming req see
system.mem_ctrls.rdQLenPdf::29                      0                       # What read queue length does an incoming req see
system.mem_ctrls.rdQLenPdf::30                      0                       # What read queue length does an incoming req see
system.mem_ctrls.rdQLenPdf::31                      0                       # What read queue length does an incoming req see
system.mem_ctrls.wrQLenPdf::0                       1                       # What write queue length does an incoming req see
system.mem_ctrls.wrQLenPdf::1                       1                       # What write queue length does an incoming req see
system.mem_ctrls.wrQLenPdf::2                       1                       # What write queue length does an incoming req see
system.mem_ctrls.wrQLenPdf::3                       1                       # What write queue length does an incoming req see
system.mem_ctrls.wrQLenPdf::4                       1                       # What write queue length does an incoming req see
system.mem_ctrls.wrQLenPdf::5                       1                       # What write queue length does an incoming req see
system.mem_ctrls.wrQLenPdf::6                       1                       # What write queue length does an incoming req see
system.mem_ctrls.wrQLenPdf::7                       1                       # What write queue length does an incoming req see
system.mem_ctrls.wrQLenPdf::8                       1                       # What write queue length does an incoming req see
system.mem_ctrls.wrQLenPdf::9                       1                       # What write queue length does an incoming req see
system.mem_ctrls.wrQLenPdf::10                      1                       # What write queue length does an incoming req see
system.mem_ctrls.wrQLenPdf::11                      1                       # What write queue length does an incoming req see
system.mem_ctrls.wrQLenPdf::12                      1                       # What write queue length does an incoming req see
system.mem_ctrls.wrQLenPdf::13                      1                       # What write queue length does an incoming req see
system.mem_ctrls.wrQLenPdf::14                      1                       # What write queue length does an incoming req see
system.mem_ctrls.wrQLenPdf::15                   5384                       # What write queue length does an incoming req see
system.mem_ctrls.wrQLenPdf::16                   5544                       # What write queue length does an incoming req see
system.mem_ctrls.wrQLenPdf::17                   7544                       # What write queue length does an incoming req see
system.mem_ctrls.wrQLenPdf::18                   8308                       # What write queue length does an incoming req see
system.mem_ctrls.wrQLenPdf::19                   8349                       # What write queue length does an incoming req see
system.mem_ctrls.wrQLenPdf::20                   8226                       # What write queue length does an incoming req see
system.mem_ctrls.wrQLenPdf::21                   8198                       # What write queue length does an incoming req see
system.mem_ctrls.wrQLenPdf::22                   8197                       # What write queue length does an incoming req see
system.mem_ctrls.wrQLenPdf::23                   8267                       # What write queue length does an incoming req see
system.mem_ctrls.wrQLenPdf::24                   8199                       # What write queue length does an incoming req see
system.mem_ctrls.wrQLenPdf::25                   8974                       # What write queue length does an incoming req see
system.mem_ctrls.wrQLenPdf::26                   8677                       # What write queue length does an incoming req see
system.mem_ctrls.wrQLenPdf::27                   8200                       # What write queue length does an incoming req see
system.mem_ctrls.wrQLenPdf::28                   8193                       # What write queue length does an incoming req see
system.mem_ctrls.wrQLenPdf::29                   8191                       # What write queue length does an incoming req see
system.mem_ctrls.wrQLenPdf::30                   8191                       # What write queue length does an incoming req see
system.mem_ctrls.wrQLenPdf::31                   8190                       # What write queue length does an incoming req see
system.mem_ctrls.wrQLenPdf::32                   8190                       # What write queue length does an incoming req see
system.mem_ctrls.wrQLenPdf::33                     14                       # What write queue length does an incoming req see
system.mem_ctrls.wrQLenPdf::34                      0                       # What write queue length does an incoming req see
system.mem_ctrls.wrQLenPdf::35                      0                       # What write queue length does an incoming req see
system.mem_ctrls.wrQLenPdf::36                      0                       # What write queue length does an incoming req see
system.mem_ctrls.wrQLenPdf::37                      0                       # What write queue length does an incoming req see
system.mem_ctrls.wrQLenPdf::38                      0                       # What write queue length does an incoming req see
system.mem_ctrls.wrQLenPdf::39                      0                       # What write queue length does an incoming req see
system.mem_ctrls.wrQLenPdf::40                      0                       # What write queue length does an incoming req see
system.mem_ctrls.wrQLenPdf::41                      0                       # What write queue length does an incoming req see
system.mem_ctrls.wrQLenPdf::42                      0                       # What write queue length does an incoming req see
system.mem_ctrls.wrQLenPdf::43                      0                       # What write queue length does an incoming req see
system.mem_ctrls.wrQLenPdf::44                      0                       # What write queue length does an incoming req see
system.mem_ctrls.wrQLenPdf::45                      0                       # What write queue length does an incoming req see
system.mem_ctrls.wrQLenPdf::46                      0                       # What write queue length does an incoming req see
system.mem_ctrls.wrQLenPdf::47                      0                       # What write queue length does an incoming req see
system.mem_ctrls.wrQLenPdf::48                      0                       # What write queue length does an incoming req see
system.mem_ctrls.wrQLenPdf::49                      0                       # What write queue length does an incoming req see
system.mem_ctrls.wrQLenPdf::50                      0                       # What write queue length does an incoming req see
system.mem_ctrls.wrQLenPdf::51                      0                       # What write queue length does an incoming req see
system.mem_ctrls.wrQLenPdf::52                      0                       # What write queue length does an incoming req see
system.mem_ctrls.wrQLenPdf::53                      0                       # What write queue length does an incoming req see
system.mem_ctrls.wrQLenPdf::54                      0                       # What write queue length does an incoming req see
system.mem_ctrls.wrQLenPdf::55                      0                       # What write queue length does an incoming req see
system.mem_ctrls.wrQLenPdf::56                      0                       # What write queue length does an incoming req see
system.mem_ctrls.wrQLenPdf::57                      0                       # What write queue length does an incoming req see
system.mem_ctrls.wrQLenPdf::58                      0                       # What write queue length does an incoming req see
system.mem_ctrls.wrQLenPdf::59                      0                       # What write queue length does an incoming req see
system.mem_ctrls.wrQLenPdf::60                      0                       # What write queue length does an incoming req see
system.mem_ctrls.wrQLenPdf::61                      0                       # What write queue length does an incoming req see
system.mem_ctrls.wrQLenPdf::62                      0                       # What write queue length does an incoming req see
system.mem_ctrls.wrQLenPdf::63                      0                       # What write queue length does an incoming req see
system.mem_ctrls.rdPerTurnAround::samples         8190                       # Reads before turning the bus around for writes
system.mem_ctrls.rdPerTurnAround::mean      19.596337                       # Reads before turning the bus around for writes
system.mem_ctrls.rdPerTurnAround::gmean     18.500426                       # Reads before turning the bus around for writes
system.mem_ctrls.rdPerTurnAround::stdev     68.420785                       # Reads before turning the bus around for writes
system.mem_ctrls.rdPerTurnAround::0-255          8189     99.99%     99.99% # Reads before turning the bus around for writes
system.mem_ctrls.rdPerTurnAround::6144-6399            1      0.01%    100.00% # Reads before turning the bus around for writes
system.mem_ctrls.rdPerTurnAround::total          8190                       # Reads before turning the bus around for writes
system.mem_ctrls.wrPerTurnAround::samples         8190                       # Writes before turning the bus around for reads
system.mem_ctrls.wrPerTurnAround::mean      17.463004                       # Writes before turning the bus around for reads
system.mem_ctrls.wrPerTurnAround::gmean     17.427902                       # Writes before turning the bus around for reads
system.mem_ctrls.wrPerTurnAround::stdev      1.099312                       # Writes before turning the bus around for reads
system.mem_ctrls.wrPerTurnAround::16             2727     33.30%     33.30% # Writes before turning the bus around for reads
system.mem_ctrls.wrPerTurnAround::17               75      0.92%     34.21% # Writes before turning the bus around for reads
system.mem_ctrls.wrPerTurnAround::18             4329     52.86%     87.07% # Writes before turning the bus around for reads
system.mem_ctrls.wrPerTurnAround::19              987     12.05%     99.12% # Writes before turning the bus around for reads
system.mem_ctrls.wrPerTurnAround::20               72      0.88%    100.00% # Writes before turning the bus around for reads
system.mem_ctrls.wrPerTurnAround::total          8190                       # Writes before turning the bus around for reads
system.mem_ctrls.bytesReadWrQ                    1920                       # Total number of bytes read from write queue
system.mem_ctrls.bytesReadSys                 5137280                       # Total read bytes from the system interface side
system.mem_ctrls.bytesWrittenSys              4852160                       # Total written bytes from the system interface side
system.mem_ctrls.avgRdBWSys                     26.85                       # Average system read bandwidth in MiByte/s
system.mem_ctrls.avgWrBWSys                     25.36                       # Average system write bandwidth in MiByte/s
system.mem_ctrls.totGap                  191337877500                       # Total gap between requests
system.mem_ctrls.avgGap                     612928.46                       # Average gap between requests
system.mem_ctrls.requestorReadBytes::.cpu.inst        33600                       # Per-requestor bytes read from memory
system.mem_ctrls.requestorReadBytes::.cpu.data      5102720                       # Per-requestor bytes read from memory
system.mem_ctrls.requestorWriteBytes::.writebacks      4576704                       # Per-requestor bytes write to memory
system.mem_ctrls.requestorReadRate::.cpu.inst 175603.532420798263                       # Per-requestor bytes read from memory rate (Bytes/sec)
system.mem_ctrls.requestorReadRate::.cpu.data 26668323.123638562858                       # Per-requestor bytes read from memory rate (Bytes/sec)
system.mem_ctrls.requestorWriteRate::.writebacks 23919208.013226103038                       # Per-requestor bytes write to memory rate (Bytes/sec)
system.mem_ctrls.requestorReadAccesses::.cpu.inst         1050                       # Per-requestor read serviced memory accesses
system.mem_ctrls.requestorReadAccesses::.cpu.data       159490                       # Per-requestor read serviced memory accesses
system.mem_ctrls.requestorWriteAccesses::.writebacks       151630                       # Per-requestor write serviced memory accesses
system.mem_ctrls.requestorReadTotalLat::.cpu.inst     26384250                       # Per-requestor read total memory access latency
system.mem_ctrls.requestorReadTotalLat::.cpu.data   4430507750                       # Per-requestor read total memory access latency
[...]
system.mem_ctrls.dram.bw_total::.cpu.data     26673340                       # Total bandwidth to/from this memory (bytes/s)
system.mem_ctrls.dram.bw_total::total        52207766                       # Total bandwidth to/from this memory (bytes/s)
system.mem_ctrls.dram.readBursts               160510                       # Number of DRAM read bursts
system.mem_ctrls.dram.writeBursts              143022                       # Number of DRAM write bursts
system.mem_ctrls.dram.perBankRdBursts::0        10143                       # Per bank write bursts
system.mem_ctrls.dram.perBankRdBursts::1        10219                       # Per bank write bursts
system.mem_ctrls.dram.perBankRdBursts::2        10082                       # Per bank write bursts
system.mem_ctrls.dram.perBankRdBursts::3         9858                       # Per bank write bursts
system.mem_ctrls.dram.perBankRdBursts::4         9764                       # Per bank write bursts
system.mem_ctrls.dram.perBankRdBursts::5         9803                       # Per bank write bursts
system.mem_ctrls.dram.perBankRdBursts::6         9673                       # Per bank write bursts
system.mem_ctrls.dram.perBankRdBursts::7         9990                       # Per bank write bursts
system.mem_ctrls.dram.perBankRdBursts::8        11350                       # Per bank write bursts
system.mem_ctrls.dram.perBankRdBursts::9         9827                       # Per bank write bursts
system.mem_ctrls.dram.perBankRdBursts::10        10068                       # Per bank write bursts
system.mem_ctrls.dram.perBankRdBursts::11         9930                       # Per bank write bursts
system.mem_ctrls.dram.perBankRdBursts::12         9952                       # Per bank write bursts
system.mem_ctrls.dram.perBankRdBursts::13         9897                       # Per bank write bursts
system.mem_ctrls.dram.perBankRdBursts::14         9966                       # Per bank write bursts
system.mem_ctrls.dram.perBankRdBursts::15         9988                       # Per bank write bursts
system.mem_ctrls.dram.perBankWrBursts::0         8897                       # Per bank write bursts
system.mem_ctrls.dram.perBankWrBursts::1         9015                       # Per bank write bursts
system.mem_ctrls.dram.perBankWrBursts::2         8956                       # Per bank write bursts
system.mem_ctrls.dram.perBankWrBursts::3         8850                       # Per bank write bursts
system.mem_ctrls.dram.perBankWrBursts::4         8868                       # Per bank write bursts
system.mem_ctrls.dram.perBankWrBursts::5         8887                       # Per bank write bursts
system.mem_ctrls.dram.perBankWrBursts::6         8830                       # Per bank write bursts
system.mem_ctrls.dram.perBankWrBursts::7         8892                       # Per bank write bursts
system.mem_ctrls.dram.perBankWrBursts::8         8736                       # Per bank write bursts
system.mem_ctrls.dram.perBankWrBursts::9         8927                       # Per bank write bursts
system.mem_ctrls.dram.perBankWrBursts::10         8990                       # Per bank write bursts
system.mem_ctrls.dram.perBankWrBursts::11         9061                       # Per bank write bursts
system.mem_ctrls.dram.perBankWrBursts::12         9056                       # Per bank write bursts
system.mem_ctrls.dram.perBankWrBursts::13         9037                       # Per bank write bursts
system.mem_ctrls.dram.perBankWrBursts::14         8977                       # Per bank write bursts
system.mem_ctrls.dram.perBankWrBursts::15         9043                       # Per bank write bursts
system.mem_ctrls.dram.totQLat              1447329500                       # Total ticks spent queuing
system.mem_ctrls.dram.totBusLat             802550000                       # Total ticks spent in databus transfers
system.mem_ctrls.dram.totMemAccLat         4456892000                       # Total ticks spent from burst creation until serviced by the DRAM
system.mem_ctrls.dram.avgQLat                 9017.07                       # Average queueing delay per DRAM burst
system.mem_ctrls.dram.avgBusLat               5000.00                       # Average bus latency per DRAM burst
system.mem_ctrls.dram.avgMemAccLat           27767.07                       # Average memory access latency per DRAM burst
system.mem_ctrls.dram.readRowHits              115207                       # Number of row buffer hits during reads
system.mem_ctrls.dram.writeRowHits             100249                       # Number of row buffer hits during writes
system.mem_ctrls.dram.readRowHitRate            71.78                       # Row buffer hit rate for reads
system.mem_ctrls.dram.writeRowHitRate           70.09                       # Row buffer hit rate for writes
system.mem_ctrls.dram.bytesPerActivate::samples        88076                       # Bytes accessed per row activation
system.mem_ctrls.dram.bytesPerActivate::mean   220.560062                       # Bytes accessed per row activation
system.mem_ctrls.dram.bytesPerActivate::gmean   161.559356                       # Bytes accessed per row activation
system.mem_ctrls.dram.bytesPerActivate::stdev   186.769460                       # Bytes accessed per row activation
system.mem_ctrls.dram.bytesPerActivate::0-127        30297     34.40%     34.40% # Bytes accessed per row activation
system.mem_ctrls.dram.bytesPerActivate::128-255        17867     20.29%     54.68% # Bytes accessed per row activation
system.mem_ctrls.dram.bytesPerActivate::256-383        26734     30.35%     85.04% # Bytes accessed per row activation
system.mem_ctrls.dram.bytesPerActivate::384-511         4880      5.54%     90.58% # Bytes accessed per row activation
system.mem_ctrls.dram.bytesPerActivate::512-639         3557      4.04%     94.62% # Bytes accessed per row activation
system.mem_ctrls.dram.bytesPerActivate::640-767         1809      2.05%     96.67% # Bytes accessed per row activation
system.mem_ctrls.dram.bytesPerActivate::768-895         1722      1.96%     98.63% # Bytes accessed per row activation
system.mem_ctrls.dram.bytesPerActivate::896-1023          503      0.57%     99.20% # Bytes accessed per row activation
system.mem_ctrls.dram.bytesPerActivate::1024-1151          707      0.80%    100.00% # Bytes accessed per row activation
system.mem_ctrls.dram.bytesPerActivate::total        88076                       # Bytes accessed per row activation
system.mem_ctrls.dram.bytesRead              10272640                       # Total number of bytes read from DRAM
system.mem_ctrls.dram.bytesWritten            9153408                       # Total number of bytes written to DRAM
system.mem_ctrls.dram.avgRdBW               53.687853                       # Average DRAM read bandwidth in MiBytes/s
system.mem_ctrls.dram.avgWrBW               47.838416                       # Average DRAM write bandwidth in MiBytes/s
system.mem_ctrls.dram.peakBW                 12800.00                       # Theoretical peak bandwidth in MiByte/s
system.mem_ctrls.dram.busUtil                    0.79                       # Data bus utilization in percentage
system.mem_ctrls.dram.busUtilRead                0.42                       # Data bus utilization in percentage for reads
system.mem_ctrls.dram.busUtilWrite               0.37                       # Data bus utilization in percentage for writes
system.mem_ctrls.dram.pageHitRate               70.98                       # Row buffer hit rate, read and write combined
system.mem_ctrls.dram.power_state.pwrStateResidencyTicks::UNDEFINED 191340114500                       # Cumulative time (in ticks) in various power states
system.mem_ctrls.dram.rank0.actEnergy       307526940                       # Energy for activate commands per rank (pJ)
system.mem_ctrls.dram.rank0.preEnergy       163454445                       # Energy for precharge commands per rank (pJ)
system.mem_ctrls.dram.rank0.readEnergy      567858480                       # Energy for read commands per rank (pJ)
system.mem_ctrls.dram.rank0.writeEnergy     371637900                       # Energy for write commands per rank (pJ)
system.mem_ctrls.dram.rank0.refreshEnergy 15104163360.000002                       # Energy for refresh commands per rank (pJ)
system.mem_ctrls.dram.rank0.actBackEnergy  45385416660                       # Energy for active background per rank (pJ)
system.mem_ctrls.dram.rank0.preBackEnergy  35255305920                       # Energy for precharge background per rank (pJ)
system.mem_ctrls.dram.rank0.actPowerDownEnergy            0                       # Energy for active power-down per rank (pJ)
system.mem_ctrls.dram.rank0.prePowerDownEnergy            0                       # Energy for precharge power-down per rank (pJ)
system.mem_ctrls.dram.rank0.selfRefreshEnergy            0                       # Energy for self refresh per rank (pJ)
system.mem_ctrls.dram.rank0.totalEnergy   97155363705                       # Total energy per rank (pJ)
system.mem_ctrls.dram.rank0.averagePower   507.762651                       # Core power per rank (mW)
system.mem_ctrls.dram.rank0.totalIdleTime            0                       # Total Idle time Per DRAM Rank
system.mem_ctrls.dram.rank0.pwrStateTime::IDLE  91218204750                       # Time in different power states
system.mem_ctrls.dram.rank0.pwrStateTime::REF   6389240000                       # Time in different power states
system.mem_ctrls.dram.rank0.pwrStateTime::SREF            0                       # Time in different power states
system.mem_ctrls.dram.rank0.pwrStateTime::PRE_PDN            0                       # Time in different power states
system.mem_ctrls.dram.rank0.pwrStateTime::ACT  93732669750                       # Time in different power states
system.mem_ctrls.dram.rank0.pwrStateTime::ACT_PDN            0                       # Time in different power states
system.mem_ctrls.dram.rank1.actEnergy       321335700                       # Energy for activate commands per rank (pJ)
system.mem_ctrls.dram.rank1.preEnergy       170793975                       # Energy for precharge commands per rank (pJ)
system.mem_ctrls.dram.rank1.readEnergy      578182920                       # Energy for read commands per rank (pJ)
system.mem_ctrls.dram.rank1.writeEnergy     374936940                       # Energy for write commands per rank (pJ)
system.mem_ctrls.dram.rank1.refreshEnergy 15104163360.000002                       # Energy for refresh commands per rank (pJ)
system.mem_ctrls.dram.rank1.actBackEnergy  46365642240                       # Energy for active background per rank (pJ)
system.mem_ctrls.dram.rank1.preBackEnergy  34429852800                       # Energy for precharge background per rank (pJ)
system.mem_ctrls.dram.rank1.actPowerDownEnergy            0                       # Energy for active power-down per rank (pJ)
system.mem_ctrls.dram.rank1.prePowerDownEnergy            0                       # Energy for precharge power-down per rank (pJ)
system.mem_ctrls.dram.rank1.selfRefreshEnergy            0                       # Energy for self refresh per rank (pJ)
system.mem_ctrls.dram.rank1.totalEnergy   97344907935                       # Total energy per rank (pJ)
system.mem_ctrls.dram.rank1.averagePower   508.753265                       # Core power per rank (mW)
system.mem_ctrls.dram.rank1.totalIdleTime            0                       # Total Idle time Per DRAM Rank
system.mem_ctrls.dram.rank1.pwrStateTime::IDLE  89064565250                       # Time in different power states
system.mem_ctrls.dram.rank1.pwrStateTime::REF   6389240000                       # Time in different power states
system.mem_ctrls.dram.rank1.pwrStateTime::SREF            0                       # Time in different power states
system.mem_ctrls.dram.rank1.pwrStateTime::PRE_PDN            0                       # Time in different power states
system.mem_ctrls.dram.rank1.pwrStateTime::ACT  95886309250                       # Time in different power states
system.mem_ctrls.dram.rank1.pwrStateTime::ACT_PDN            0                       # Time in different power states
system.mem_ctrls.power_state.pwrStateResidencyTicks::UNDEFINED 191340114500                       # Cumulative time (in ticks) in various power states
system.membus.trans_dist::ReadResp              22985                       # Transaction distribution
system.membus.trans_dist::WritebackDirty       151630                       # Transaction distribution
system.membus.trans_dist::CleanEvict             1731                       # Transaction distribution
system.membus.trans_dist::ReadExReq            137555                       # Transaction distribution
system.membus.trans_dist::ReadExResp           137555                       # Transaction distribution
system.membus.trans_dist::ReadSharedReq         22985                       # Transaction distribution
system.membus.pkt_count_system.l2.mem_side_port::system.mem_ctrls.port       474441                       # Packet count per connected requestor and responder (bytes)
system.membus.pkt_count_system.l2.mem_side_port::total       474441                       # Packet count per connected requestor and responder (bytes)
system.membus.pkt_count::total                 474441                       # Packet count per connected requestor and responder (bytes)
system.membus.pkt_size_system.l2.mem_side_port::system.mem_ctrls.port      9989440                       # Cumulative packet size per connected requestor and responder (bytes)
system.membus.pkt_size_system.l2.mem_side_port::total      9989440                       # Cumulative packet size per connected requestor and responder (bytes)
system.membus.pkt_size::total                 9989440                       # Cumulative packet size per connected requestor and responder (bytes)
system.membus.snoops                                0                       # Total snoops (count)
system.membus.snoopTraffic                          0                       # Total snoop traffic (bytes)
system.membus.snoop_fanout::samples            160540                       # Request fanout histogram
system.membus.snoop_fanout::mean                    0                       # Request fanout histogram
system.membus.snoop_fanout::stdev                   0                       # Request fanout histogram
system.membus.snoop_fanout::underflows              0      0.00%      0.00% # Request fanout histogram
system.membus.snoop_fanout::0                  160540    100.00%    100.00% # Request fanout histogram
system.membus.snoop_fanout::1                       0      0.00%    100.00% # Request fanout histogram
system.membus.snoop_fanout::overflows               0      0.00%    100.00% # Request fanout histogram
system.membus.snoop_fanout::min_value               0                       # Request fanout histogram
system.membus.snoop_fanout::max_value               0                       # Request fanout histogram
system.membus.snoop_fanout::total              160540                       # Request fanout histogram
system.membus.power_state.pwrStateResidencyTicks::UNDEFINED 191340114500                       # Cumulative time (in ticks) in various power states
system.membus.reqLayer2.occupancy           622819500                       # Layer occupancy (ticks)
system.membus.reqLayer2.utilization               0.3                       # Layer utilization (%)
system.membus.respLayer1.occupancy          533291000                       # Layer occupancy (ticks)
system.membus.respLayer1.utilization              0.3                       # Layer utilization (%)
system.tol2bus.trans_dist::ReadResp             23882                       # Transaction distribution
system.tol2bus.trans_dist::WritebackDirty       306211                       # Transaction distribution
system.tol2bus.trans_dist::WritebackClean           21                       # Transaction distribution
system.tol2bus.trans_dist::CleanEvict          160111                       # Transaction distribution
system.tol2bus.trans_dist::ReadExReq           137555                       # Transaction distribution
system.tol2bus.trans_dist::ReadExResp          137555                       # Transaction distribution
system.tol2bus.trans_dist::ReadCleanReq          1050                       # Transaction distribution
system.tol2bus.trans_dist::ReadSharedReq        22832                       # Transaction distribution
system.tol2bus.pkt_count_system.cpu.icache.mem_side_port::system.l2.cpu_side_port         2121                       # Packet count per connected requestor and responder (bytes)
system.tol2bus.pkt_count_system.cpu.dcache.mem_side_port::system.l2.cpu_side_port       477065                       # Packet count per connected requestor and responder (bytes)
system.tol2bus.pkt_count::total                479186                       # Packet count per connected requestor and responder (bytes)
system.tol2bus.pkt_size_system.cpu.icache.mem_side_port::system.l2.cpu_side_port        34272                       # Cumulative packet size per connected requestor and responder (bytes)
system.tol2bus.pkt_size_system.cpu.dcache.mem_side_port::system.l2.cpu_side_port     10078976                       # Cumulative packet size per connected requestor and responder (bytes)
system.tol2bus.pkt_size::total               10113248                       # Cumulative packet size per connected requestor and responder (bytes)
system.tol2bus.snoops                          310031                       # Total snoops (count)
system.tol2bus.snoopTraffic                   4852160                       # Total snoop traffic (bytes)
system.tol2bus.snoop_fanout::samples           471468                       # Request fanout histogram
system.tol2bus.snoop_fanout::mean            0.335885                       # Request fanout histogram
system.tol2bus.snoop_fanout::stdev           0.472299                       # Request fanout histogram
system.tol2bus.snoop_fanout::underflows             0      0.00%      0.00% # Request fanout histogram
system.tol2bus.snoop_fanout::0                 313109     66.41%     66.41% # Request fanout histogram
system.tol2bus.snoop_fanout::1                 158359     33.59%    100.00% # Request fanout histogram
system.tol2bus.snoop_fanout::2                      0      0.00%    100.00% # Request fanout histogram
system.tol2bus.snoop_fanout::3                      0      0.00%    100.00% # Request fanout histogram
system.tol2bus.snoop_fanout::4                      0      0.00%    100.00% # Request fanout histogram
system.tol2bus.snoop_fanout::overflows              0      0.00%    100.00% # Request fanout histogram
system.tol2bus.snoop_fanout::min_value              0                       # Request fanout histogram
system.tol2bus.snoop_fanout::max_value              1                       # Request fanout histogram
system.tol2bus.snoop_fanout::total             471468                       # Request fanout histogram
system.tol2bus.power_state.pwrStateResidencyTicks::UNDEFINED 191340114500                       # Cumulative time (in ticks) in various power states
system.tol2bus.reqLayer0.occupancy          236175500                       # Layer occupancy (ticks)
system.tol2bus.reqLayer0.utilization              0.1                       # Layer utilization (%)
system.tol2bus.respLayer0.occupancy           1050000                       # Layer occupancy (ticks)
system.tol2bus.respLayer0.utilization             0.0                       # Layer utilization (%)
system.tol2bus.respLayer1.occupancy         160387000                       # Layer occupancy (ticks)
system.tol2bus.respLayer1.utilization             0.1                       # Layer utilization (%)
system.voltage_domain.voltage                       1                       # Voltage in Volts

---------- End Simulation Statistics   ----------
