
---------- Begin Simulation Statistics ----------
final_tick                               191319011500                       # Number of ticks from beginning of simulation (restored from checkpoints and never reset)
host_inst_rate                                 778016                       # Simulator instruction rate (inst/s)
host_mem_usage                                 654652                       # Number of bytes of host memory used
host_op_rate                                  1433200                       # Simulator op (including micro ops) rate (op/s)
host_seconds                                   128.53                       # Real time elapsed on the host
host_tick_rate                             1488491764                       # Simulator tick rate (ticks/s)
sim_freq                                 1000000000000                       # Frequency of simulated ticks
sim_insts                                   100000001                       # Number of instructions simulated
sim_ops                                     184212218                       # Number of ops (including micro ops) simulated
sim_seconds                                  0.191319                       # Number of seconds simulated
sim_ticks                                191319011500                       # Number of ticks simulated
system.cpu.Branches                          21138365                       # Number of branches fetched
system.cpu.committedInsts                   100000001                       # Number of instructions committed
system.cpu.committedOps                     184212218                       # Number of ops (including micro ops) committed
system.cpu.idle_fraction                            0                       # Percentage of idle cycles
system.cpu.not_idle_fraction                        1                       # Percentage of non-idle cycles
system.cpu.numCycles                        382638023                       # number of cpu cycles simulated
system.cpu.numWorkItemsCompleted                    0                       # number of work items this cpu completed
system.cpu.numWorkItemsStarted                      0                       # number of work items this cpu started
system.cpu.num_busy_cycles                  382638023                       # Number of busy cycles
system.cpu.num_cc_register_reads            110470900                       # number of times the CC registers were read
system.cpu.num_cc_register_writes            56278691                       # number of times the CC registers were written
system.cpu.num_conditional_control_insts     17377044                       # number of instructions that are conditional controls
system.cpu.num_fp_alu_accesses                4198252                       # Number of float alu accesses
system.cpu.num_fp_insts                       4198252                       # number of float instructions
system.cpu.num_fp_register_reads              4465556                       # number of times the floating registers were read
system.cpu.num_fp_register_writes             2555554                       # number of times the floating registers were written
system.cpu.num_func_calls                     1777727                       # number of times a function call or return occured
system.cpu.num_idle_cycles                          0                       # Number of idle cycles
system.cpu.num_int_alu_accesses             181168224                       # Number of integer alu accesses
system.cpu.num_int_insts                    181168224                       # number of integer instructions
system.cpu.num_int_register_reads           359599209                       # number of times the integer registers were read
system.cpu.num_int_register_writes          144214147                       # number of times the integer registers were written
system.cpu.num_load_insts                    23270941                       # Number of load instructions
system.cpu.num_mem_refs                      38707146                       # number of memory refs
system.cpu.num_store_insts                   15436205                       # Number of store instructions
system.cpu.num_vec_alu_accesses                     0                       # Number of vector alu accesses
system.cpu.num_vec_insts                            0                       # number of vector instructions
system.cpu.num_vec_register_reads                   0                       # number of times the vector registers were read
system.cpu.num_vec_register_writes                  0                       # number of times the vector registers were written
system.cpu.op_class::No_OpClass               1407926      0.76%      0.76% # Class of executed instruction
system.cpu.op_class::IntAlu                 141803021     76.98%     77.74% # Class of executed instruction
system.cpu.op_class::IntMult                   451603      0.25%     77.99% # Class of executed instruction
system.cpu.op_class::IntDiv                        28      0.00%     77.99% # Class of executed instruction
system.cpu.op_class::FloatAdd                  465164      0.25%     78.24% # Class of executed instruction
system.cpu.op_class::FloatCmp                       0      0.00%     78.24% # Class of executed instruction
system.cpu.op_class::FloatCvt                       0      0.00%     78.24% # Class of executed instruction
system.cpu.op_class::FloatMult                      0      0.00%     78.24% # Class of executed instruction
system.cpu.op_class::FloatMultAcc                   0      0.00%     78.24% # Class of executed instruction
system.cpu.op_class::FloatDiv                       0      0.00%     78.24% # Class of executed instruction
system.cpu.op_class::FloatMisc                      0      0.00%     78.24% # Class of executed instruction
system.cpu.op_class::FloatSqrt                      0      0.00%     78.24% # Class of executed instruction
system.cpu.op_class::SimdAdd                        0      0.00%     78.24% # Class of executed instruction
system.cpu.op_class::SimdAddAcc                     0      0.00%     78.24% # Class of executed instruction
system.cpu.op_class::SimdAlu                    95520      0.05%     78.29% # Class of executed instruction
system.cpu.op_class::SimdCmp                        0      0.00%     78.29% # Class of executed instruction
system.cpu.op_class::SimdCvt                   215010      0.12%     78.41% # Class of executed instruction
system.cpu.op_class::SimdMisc                 1068136      0.58%     78.99% # Class of executed instruction
system.cpu.op_class::SimdMult                       0      0.00%     78.99% # Class of executed instruction
system.cpu.op_class::SimdMultAcc                    0      0.00%     78.99% # Class of executed instruction
system.cpu.op_class::SimdShift                      0      0.00%     78.99% # Class of executed instruction
system.cpu.op_class::SimdShiftAcc                   0      0.00%     78.99% # Class of executed instruction
system.cpu.op_class::SimdDiv                        0      0.00%     78.99% # Class of executed instruction
system.cpu.op_class::SimdSqrt                       0      0.00%     78.99% # Class of executed instruction
system.cpu.op_class::SimdFloatAdd                   0      0.00%     78.99% # Class of executed instruction
system.cpu.op_class::SimdFloatAlu                   0      0.00%     78.99% # Class of executed instruction
system.cpu.op_class::SimdFloatCmp                   0      0.00%     78.99% # Class of executed instruction
system.cpu.op_class::SimdFloatCvt                   0      0.00%     78.99% # Class of executed instruction
system.cpu.op_class::SimdFloatDiv                   0      0.00%     78.99% # Class of executed instruction
system.cpu.op_class::SimdFloatMisc                  0      0.00%     78.99% # Class of executed instruction
system.cpu.op_class::SimdFloatMult                  0      0.00%     78.99% # Class of executed instruction
system.cpu.op_class::SimdFloatMultAcc               0      0.00%     78.99% # Class of executed instruction
system.cpu.op_class::SimdFloatSqrt                  0      0.00%     78.99% # Class of executed instruction
system.cpu.op_class::SimdReduceAdd                  0      0.00%     78.99% # Class of executed instruction
system.cpu.op_class::SimdReduceAlu                  0      0.00%     78.99% # Class of executed instruction
system.cpu.op_class::SimdReduceCmp                  0      0.00%     78.99% # Class of executed instruction
system.cpu.op_class::SimdFloatReduceAdd             0      0.00%     78.99% # Class of executed instruction
system.cpu.op_class::SimdFloatReduceCmp             0      0.00%     78.99% # Class of executed instruction
system.cpu.op_class::SimdAes                        0      0.00%     78.99% # Class of executed instruction
system.cpu.op_class::SimdAesMix                     0      0.00%     78.99% # Class of executed instruction
system.cpu.op_class::SimdSha1Hash                   0      0.00%     78.99% # Class of executed instruction
system.cpu.op_class::SimdSha1Hash2                  0      0.00%     78.99% # Class of executed instruction
system.cpu.op_class::SimdSha256Hash                 0      0.00%     78.99% # Class of executed instruction
system.cpu.op_class::SimdSha256Hash2                0      0.00%     78.99% # Class of executed instruction
system.cpu.op_class::SimdShaSigma2                  0      0.00%     78.99% # Class of executed instruction
system.cpu.op_class::SimdShaSigma3                  0      0.00%     78.99% # Class of executed instruction
system.cpu.op_class::SimdPredAlu                    0      0.00%     78.99% # Class of executed instruction
system.cpu.op_class::MemRead                 22624662     12.28%     91.27% # Class of executed instruction
system.cpu.op_class::MemWrite                14008515      7.60%     98.87% # Class of executed instruction
system.cpu.op_class::FloatMemRead              646279      0.35%     99.22% # Class of executed instruction
system.cpu.op_class::FloatMemWrite            1427690      0.78%    100.00% # Class of executed instruction
system.cpu.op_class::IprAccess                      0      0.00%    100.00% # Class of executed instruction
system.cpu.op_class::InstPrefetch                   0      0.00%    100.00% # Class of executed instruction
system.cpu.op_class::total                  184213554                       # Class of executed instruction
system.cpu.workload.numSyscalls                    93                       # Number of system calls
system.membus.snoop_filter.hit_multi_requests            0                       # Number of requests hitting in the snoop filter with multiple (>1) holders of the requested data.
system.membus.snoop_filter.hit_multi_snoops            0                       # Number of snoops hitting in the snoop filter with multiple (>1) holders of the requested data.
system.membus.snoop_filter.hit_single_requests       153292                       # Number of requests hitting in the snoop filter with a single holder of the requested data.
system.membus.snoop_filter.hit_single_snoops            0                       # Number of snoops hitting in the snoop filter with a single holder of the requested data.
system.membus.snoop_filter.tot_requests        313739                       # Total number of requests made to the snoop filter.
system.membus.snoop_filter.tot_snoops               0                       # Total number of snoops made to the snoop filter.
system.tol2bus.snoop_filter.hit_multi_requests            0                       # Number of requests hitting in the snoop filter with multiple (>1) holders of the requested data.
system.tol2bus.snoop_filter.hit_multi_snoops            0                       # Number of snoops hitting in the snoop filter with multiple (>1) holders of the requested data.
system.tol2bus.snoop_filter.hit_single_requests       156278                       # Number of requests hitting in the snoop filter with a single holder of the requested data.
system.tol2bus.snoop_filter.hit_single_snoops       158456                       # Number of snoops hitting in the snoop filter with a single holder of the requested data.
system.tol2bus.snoop_filter.tot_requests       317681                       # Total number of requests made to the snoop filter.
system.tol2bus.snoop_filter.tot_snoops         158456                       # Total number of snoops made to the snoop filter.
system.clk_domain.clock                          1000                       # Clock period in ticks
system.cpu.dcache.demand_hits::.cpu.data     38577864                       # number of demand (read+write) hits
system.cpu.dcache.demand_hits::total         38577864                       # number of demand (read+write) hits
system.cpu.dcache.overall_hits::.cpu.data     38577864                       # number of overall hits
system.cpu.dcache.overall_hits::total        38577864                       # number of overall hits
system.cpu.dcache.demand_misses::.cpu.data       160353                       # number of demand (read+write) misses
system.cpu.dcache.demand_misses::total         160353                       # number of demand (read+write) misses
system.cpu.dcache.overall_misses::.cpu.data       160353                       # number of overall misses
system.cpu.dcache.overall_misses::total        160353                       # number of overall misses
system.cpu.dcache.demand_miss_latency::.cpu.data  12930983000                       # number of demand (read+write) miss cycles
system.cpu.dcache.demand_miss_latency::total  12930983000                       # number of demand (read+write) miss cycles
system.cpu.dcache.overall_miss_latency::.cpu.data  12930983000                       # number of overall miss cycles
system.cpu.dcache.overall_miss_latency::total  12930983000                       # number of overall miss cycles
system.cpu.dcache.demand_accesses::.cpu.data     38738217                       # number of demand (read+write) accesses
system.cpu.dcache.demand_accesses::total     38738217                       # number of demand (read+write) accesses
system.cpu.dcache.overall_accesses::.cpu.data     38738217                       # number of overall (read+write) accesses
system.cpu.dcache.overall_accesses::total     38738217                       # number of overall (read+write) accesses
system.cpu.dcache.demand_miss_rate::.cpu.data     0.004139                       # miss rate for demand accesses
system.cpu.dcache.demand_miss_rate::total     0.004139                       # miss rate for demand accesses
system.cpu.dcache.overall_miss_rate::.cpu.data     0.004139                       # miss rate for overall accesses
system.cpu.dcache.overall_miss_rate::total     0.004139                       # miss rate for overall accesses
system.cpu.dcache.demand_avg_miss_latency::.cpu.data 80640.730139                       # average overall miss latency
system.cpu.dcache.demand_avg_miss_latency::total 80640.730139                       # average overall miss latency
system.cpu.dcache.overall_avg_miss_latency::.cpu.data 80640.730139                       # average overall miss latency
system.cpu.dcache.overall_avg_miss_latency::total 80640.730139                       # average overall miss latency
system.cpu.dcache.blocked_cycles::no_mshrs            0                       # number of cycles access was blocked
system.cpu.dcache.blocked_cycles::no_targets            0                       # number of cycles access was blocked
system.cpu.dcache.blocked::no_mshrs                 0                       # number of cycles access was blocked
system.cpu.dcache.blocked::no_targets               0                       # number of cycles access was blocked
system.cpu.dcache.avg_blocked_cycles::no_mshrs          nan                       # average number of cycles each access was blocked
system.cpu.dcache.avg_blocked_cycles::no_targets          nan                       # average number of cycles each access was blocked
system.cpu.dcache.writebacks::.writebacks       154553                       # number of writebacks
system.cpu.dcache.writebacks::total            154553                       # number of writebacks
system.cpu.dcache.demand_mshr_misses::.cpu.data       160353                       # number of demand (read+write) MSHR misses
system.cpu.dcache.demand_mshr_misses::total       160353                       # number of demand (read+write) MSHR misses
system.cpu.dcache.overall_mshr_misses::.cpu.data       160353                       # number of overall MSHR misses
system.cpu.dcache.overall_mshr_misses::total       160353                       # number of overall MSHR misses
system.cpu.dcache.demand_mshr_miss_latency::.cpu.data  12770630000                       # number of demand (read+write) MSHR miss cycles
system.cpu.dcache.demand_mshr_miss_latency::total  12770630000                       # number of demand (read+write) MSHR miss cycles
system.cpu.dcache.overall_mshr_miss_latency::.cpu.data  12770630000                       # number of overall MSHR miss cycles
system.cpu.dcache.overall_mshr_miss_latency::total  12770630000                       # number of overall MSHR miss cycles
system.cpu.dcache.demand_mshr_miss_rate::.cpu.data     0.004139                       # mshr miss rate for demand accesses
system.cpu.dcache.demand_mshr_miss_rate::total     0.004139                       # mshr miss rate for demand accesses
system.cpu.dcache.overall_mshr_miss_rate::.cpu.data     0.004139                       # mshr miss rate for overall accesses
system.cpu.dcache.overall_mshr_miss_rate::total     0.004139                       # mshr miss rate for overall accesses
system.cpu.dcache.demand_avg_mshr_miss_latency::.cpu.data 79640.730139                       # average overall mshr miss latency
system.cpu.dcache.demand_avg_mshr_miss_latency::total 79640.730139                       # average overall mshr miss latency
system.cpu.dcache.overall_avg_mshr_miss_latency::.cpu.data 79640.730139                       # average overall mshr miss latency
system.cpu.dcache.overall_avg_mshr_miss_latency::total 79640.730139                       # average overall mshr miss latency
system.cpu.dcache.replacements                 156257                       # number of replacements
system.cpu.dcache.ReadReq_hits::.cpu.data     23280450                       # number of ReadReq hits
system.cpu.dcache.ReadReq_hits::total        23280450                       # number of ReadReq hits
system.cpu.dcache.ReadReq_misses::.cpu.data        22798                       # number of ReadReq misses
system.cpu.dcache.ReadReq_misses::total         22798                       # number of ReadReq misses
system.cpu.dcache.ReadReq_miss_latency::.cpu.data   1931283500                       # number of ReadReq miss cycles
system.cpu.dcache.ReadReq_miss_latency::total   1931283500                       # number of ReadReq miss cycles
system.cpu.dcache.ReadReq_accesses::.cpu.data     23303248                       # number of ReadReq accesses(hits+misses)
system.cpu.dcache.ReadReq_accesses::total     23303248                       # number of ReadReq accesses(hits+misses)
system.cpu.dcache.ReadReq_miss_rate::.cpu.data     0.000978                       # miss rate for ReadReq accesses
system.cpu.dcache.ReadReq_miss_rate::total     0.000978                       # miss rate for ReadReq accesses
system.cpu.dcache.ReadReq_avg_miss_latency::.cpu.data 84712.847618                       # average ReadReq miss latency
system.cpu.dcache.ReadReq_avg_miss_latency::total 84712.847618                       # average ReadReq miss latency
system.cpu.dcache.ReadReq_mshr_misses::.cpu.data        22798                       # number of ReadReq MSHR misses
system.cpu.dcache.ReadReq_mshr_misses::total        22798                       # number of ReadReq MSHR misses
system.cpu.dcache.ReadReq_mshr_miss_latency::.cpu.data   1908485500                       # number of ReadReq MSHR miss cycles
system.cpu.dcache.ReadReq_mshr_miss_latency::total   1908485500                       # number of ReadReq MSHR miss cycles
system.cpu.dcache.ReadReq_mshr_miss_rate::.cpu.data     0.000978                       # mshr miss rate for ReadReq accesses
system.cpu.dcache.ReadReq_mshr_miss_rate::total     0.000978                       # mshr miss rate for ReadReq accesses
system.cpu.dcache.ReadReq_avg_mshr_miss_latency::.cpu.data 83712.847618                       # average ReadReq mshr miss latency
system.cpu.dcache.ReadReq_avg_mshr_miss_latency::total 83712.847618                       # average ReadReq mshr miss latency
system.cpu.dcache.WriteReq_hits::.cpu.data     15297414                       # number of WriteReq hits
system.cpu.dcache.WriteReq_hits::total       15297414                       # number of WriteReq hits
system.cpu.dcache.WriteReq_misses::.cpu.data       137555                       # number of WriteReq misses
system.cpu.dcache.WriteReq_misses::total       137555                       # number of WriteReq misses
system.cpu.dcache.WriteReq_miss_latency::.cpu.data  10999699500                       # number of WriteReq miss cycles
system.cpu.dcache.WriteReq_miss_latency::total  10999699500                       # number of WriteReq miss cycles
system.cpu.dcache.WriteReq_accesses::.cpu.data     15434969                       # number of WriteReq accesses(hits+misses)
system.cpu.dcache.WriteReq_accesses::total     15434969                       # number of WriteReq accesses(hits+misses)
system.cpu.dcache.WriteReq_miss_rate::.cpu.data     0.008912                       # miss rate for WriteReq accesses
system.cpu.dcache.WriteReq_miss_rate::total     0.008912                       # miss rate for WriteReq accesses
system.cpu.dcache.WriteReq_avg_miss_latency::.cpu.data 79965.828214                       # average WriteReq miss latency
system.cpu.dcache.WriteReq_avg_miss_latency::total 79965.828214                       # average WriteReq miss latency
system.cpu.dcache.WriteReq_mshr_misses::.cpu.data       137555                       # number of WriteReq MSHR misses
system.cpu.dcache.WriteReq_mshr_misses::total       137555                       # number of WriteReq MSHR misses
system.cpu.dcache.WriteReq_mshr_miss_latency::.cpu.data  10862144500                       # number of WriteReq MSHR miss cycles
system.cpu.dcache.WriteReq_mshr_miss_latency::total  10862144500                       # number of WriteReq MSHR miss cycles
system.cpu.dcache.WriteReq_mshr_miss_rate::.cpu.data     0.008912                       # mshr miss rate for WriteReq accesses
system.cpu.dcache.WriteReq_mshr_miss_rate::total     0.008912                       # mshr miss rate for WriteReq accesses
system.cpu.dcache.WriteReq_avg_mshr_miss_latency::.cpu.data 78965.828214                       # average WriteReq mshr miss latency
system.cpu.dcache.WriteReq_avg_mshr_miss_latency::total 78965.828214                       # average WriteReq mshr miss latency
system.cpu.dcache.power_state.pwrStateResidencyTicks::UNDEFINED 191319011500                       # Cumulative time (in ticks) in various power states
system.cpu.dcache.tags.tagsinuse          4080.219226                       # Cycle average of tags in use
system.cpu.dcache.tags.total_refs            38738217                       # Total number of references to valid blocks.
system.cpu.dcache.tags.sampled_refs            160353                       # Sample count of references to valid blocks.
system.cpu.dcache.tags.avg_refs            241.580868                       # Average number of references to valid blocks.
system.cpu.dcache.tags.warmup_cycle            177500                       # Cycle when the warmup percentage was hit.
system.cpu.dcache.tags.occ_blocks::.cpu.data  4080.219226                       # Average occupied blocks per requestor
system.cpu.dcache.tags.occ_percent::.cpu.data     0.996147                       # Average percentage of cache occupancy
system.cpu.dcache.tags.occ_percent::total     0.996147                       # Average percentage of cache occupancy
system.cpu.dcache.tags.occ_task_id_blocks::1024         4096                       # Occupied blocks per task id
system.cpu.dcache.tags.age_task_id_blocks_1024::0            5                       # Occupied blocks per task id
system.cpu.dcache.tags.age_task_id_blocks_1024::1           51                       # Occupied blocks per task id
system.cpu.dcache.tags.age_task_id_blocks_1024::2          585                       # Occupied blocks per task id
system.cpu.dcache.tags.age_task_id_blocks_1024::3         3130                       # Occupied blocks per task id
system.cpu.dcache.tags.age_task_id_blocks_1024::4          325                       # Occupied blocks per task id
system.cpu.dcache.tags.occ_task_id_percent::1024            1                       # Percentage of cache occupancy per task id
system.cpu.dcache.tags.tag_accesses        2479406241                       # Number of tag accesses
system.cpu.dcache.tags.data_accesses       2479406241                       # Number of data accesses
system.cpu.dcache.tags.power_state.pwrStateResidencyTicks::UNDEFINED 191319011500                       # Cumulative time (in ticks) in various power states
system.cpu.dtb.rdAccesses                    23303250                       # TLB accesses on read requests
system.cpu.dtb.wrAccesses                    15436210                       # TLB accesses on write requests
system.cpu.dtb.rdMisses                         21891                       # TLB misses on read requests
system.cpu.dtb.wrMisses                          2489                       # TLB misses on write requests
system.cpu.dtb.walker.power_state.pwrStateResidencyTicks::UNDEFINED 191319011500                       # Cumulative time (in ticks) in various power states
system.cpu.dtb_walker_cache.blocked_cycles::no_mshrs            0                       # number of cycles access was blocked
system.cpu.dtb_walker_cache.blocked_cycles::no_targets            0                       # number of cycles access was blocked
system.cpu.dtb_walker_cache.blocked::no_mshrs            0                       # number of cycles access was blocked
system.cpu.dtb_walker_cache.blocked::no_targets            0                       # number of cycles access was blocked
system.cpu.dtb_walker_cache.avg_blocked_cycles::no_mshrs          nan                       # average number of cycles each access was blocked
system.cpu.dtb_walker_cache.avg_blocked_cycles::no_targets          nan                       # average number of cycles each access was blocked
system.cpu.dtb_walker_cache.replacements            0                       # number of replacements
system.cpu.dtb_walker_cache.power_state.pwrStateResidencyTicks::UNDEFINED 191319011500                       # Cumulative time (in ticks) in various power states
system.cpu.dtb_walker_cache.tags.tagsinuse            0                       # Cycle average of tags in use
system.cpu.dtb_walker_cache.tags.total_refs            0                       # Total number of references to valid blocks.
system.cpu.dtb_walker_cache.tags.sampled_refs            0                       # Sample count of references to valid blocks.
system.cpu.dtb_walker_cache.tags.avg_refs          nan                       # Average number of references to valid blocks.
system.cpu.dtb_walker_cache.tags.warmup_cycle            0                       # Cycle when the warmup percentage was hit.
system.cpu.dtb_walker_cache.tags.tag_accesses            0                       # Number of tag accesses
system.cpu.dtb_walker_cache.tags.data_accesses            0                       # Number of data accesses
system.cpu.dtb_walker_cache.tags.power_state.pwrStateResidencyTicks::UNDEFINED 191319011500                       # Cumulative time (in ticks) in various power states
system.cpu.icache.demand_hits::.cpu.inst    139744651                       # number of demand (read+write) hits
system.cpu.icache.demand_hits::total        139744651                       # number of demand (read+write) hits
system.cpu.icache.overall_hits::.cpu.inst    139744651                       # number of overall hits
system.cpu.icache.overall_hits::total       139744651                       # number of overall hits
system.cpu.icache.demand_misses::.cpu.inst         1050                       # number of demand (read+write) misses
system.cpu.icache.demand_misses::total           1050                       # number of demand (read+write) misses
system.cpu.icache.overall_misses::.cpu.inst         1050                       # number of overall misses
system.cpu.icache.overall_misses::total          1050                       # number of overall misses
system.cpu.icache.demand_miss_latency::.cpu.inst     82082000                       # number of demand (read+write) miss cycles
system.cpu.icache.demand_miss_latency::total     82082000                       # number of demand (read+write) miss cycles
system.cpu.icache.overall_miss_latency::.cpu.inst     82082000                       # number of overall miss cycles
system.cpu.icache.overall_miss_latency::total     82082000                       # number of overall miss cycles
system.cpu.icache.demand_accesses::.cpu.inst    139745701                       # number of demand (read+write) accesses
system.cpu.icache.demand_accesses::total    139745701                       # number of demand (read+write) accesses
system.cpu.icache.overall_accesses::.cpu.inst    139745701                       # number of overall (read+write) accesses
system.cpu.icache.overall_accesses::total    139745701                       # number of overall (read+write) accesses
system.cpu.icache.demand_miss_rate::.cpu.inst     0.000008                       # miss rate for demand accesses
system.cpu.icache.demand_miss_rate::total     0.000008                       # miss rate for demand accesses
system.cpu.icache.overall_miss_rate::.cpu.inst     0.000008                       # miss rate for overall accesses
system.cpu.icache.overall_miss_rate::total     0.000008                       # miss rate for overall accesses
system.cpu.icache.demand_avg_miss_latency::.cpu.inst 78173.333333                       # average overall miss latency
system.cpu.icache.demand_avg_miss_latency::total 78173.333333                       # average overall miss latency
system.cpu.icache.overall_avg_miss_latency::.cpu.inst 78173.333333                       # average overall miss latency
system.cpu.icache.overall_avg_miss_latency::total 78173.333333                       # average overall miss latency
system.cpu.icache.blocked_cycles::no_mshrs            0                       # number of cycles access was blocked
system.cpu.icache.blocked_cycles::no_targets            0                       # number of cycles access was blocked
system.cpu.icache.blocked::no_mshrs                 0                       # number of cycles access was blocked
system.cpu.icache.blocked::no_targets               0                       # number of cycles access was blocked
system.cpu.icache.avg_blocked_cycles::no_mshrs          nan                       # average number of cycles each access was blocked
system.cpu.icache.avg_blocked_cycles::no_targets          nan                       # average number of cycles each access was blocked
system.cpu.icache.writebacks::.writebacks           21                       # number of writebacks
system.cpu.icache.writebacks::total                21                       # number of writebacks
system.cpu.icache.demand_mshr_misses::.cpu.inst         1050                       # number of demand (read+write) MSHR misses
system.cpu.icache.demand_mshr_misses::total         1050                       # number of demand (read+write) MSHR misses
system.cpu.icache.overall_mshr_misses::.cpu.inst         1050                       # number of overall MSHR misses
system.cpu.icache.overall_mshr_misses::total         1050                       # number of overall MSHR misses
system.cpu.icache.demand_mshr_miss_latency::.cpu.inst     81032000                       # number of demand (read+write) MSHR miss cycles
system.cpu.icache.demand_mshr_miss_latency::total     81032000                       # number of demand (read+write) MSHR miss cycles
system.cpu.icache.overall_mshr_miss_latency::.cpu.inst     81032000                       # number of overall MSHR miss cycles
system.cpu.icache.overall_mshr_miss_latency::total     81032000                       # number of overall MSHR miss cycles
system.cpu.icache.demand_mshr_miss_rate::.cpu.inst     0.000008                       # mshr miss rate for demand accesses
system.cpu.icache.demand_mshr_miss_rate::total     0.000008                       # mshr miss rate for demand accesses
system.cpu.icache.overall_mshr_miss_rate::.cpu.inst     0.000008                       # mshr miss rate for overall accesses
system.cpu.icache.overall_mshr_miss_rate::total     0.000008                       # mshr miss rate for overall accesses
system.cpu.icache.demand_avg_mshr_miss_latency::.cpu.inst 77173.333333                       # average overall mshr miss latency
system.cpu.icache.demand_avg_mshr_miss_latency::total 77173.333333                       # average overall mshr miss latency
system.cpu.icache.overall_avg_mshr_miss_latency::.cpu.inst 77173.333333                       # average overall mshr miss latency
system.cpu.icache.overall_avg_mshr_miss_latency::total 77173.333333                       # average overall mshr miss latency
system.cpu.icache.replacements                     21                       # number of replacements
system.cpu.icache.ReadReq_hits::.cpu.inst    139744651                       # number of ReadReq hits
system.cpu.icache.ReadReq_hits::total       139744651                       # number of ReadReq hits
system.cpu.icache.ReadReq_misses::.cpu.inst         1050                       # number of ReadReq misses
system.cpu.icache.ReadReq_misses::total          1050                       # number of ReadReq misses
system.cpu.icache.ReadReq_miss_latency::.cpu.inst     82082000                       # number of ReadReq miss cycles
system.cpu.icache.ReadReq_miss_latency::total     82082000                       # number of ReadReq miss cycles
system.cpu.icache.ReadReq_accesses::.cpu.inst    139745701                       # number of ReadReq accesses(hits+misses)
system.cpu.icache.ReadReq_accesses::total    139745701                       # number of ReadReq accesses(hits+misses)
system.cpu.icache.ReadReq_miss_rate::.cpu.inst     0.000008                       # miss rate for ReadReq accesses
system.cpu.icache.ReadReq_miss_rate::total     0.000008                       # miss rate for ReadReq accesses
system.cpu.icache.ReadReq_avg_miss_latency::.cpu.inst 78173.333333                       # average ReadReq miss latency
system.cpu.icache.ReadReq_avg_miss_latency::total 78173.333333                       # average ReadReq miss latency
system.cpu.icache.ReadReq_mshr_misses::.cpu.inst         1050                       # number of ReadReq MSHR misses
system.cpu.icache.ReadReq_mshr_misses::total         1050                       # number of ReadReq MSHR misses
system.cpu.icache.ReadReq_mshr_miss_latency::.cpu.inst     81032000                       # number of ReadReq MSHR miss cycles
system.cpu.icache.ReadReq_mshr_miss_latency::total     81032000                       # number of ReadReq MSHR miss cycles
system.cpu.icache.ReadReq_mshr_miss_rate::.cpu.inst     0.000008                       # mshr miss rate for ReadReq accesses
system.cpu.icache.ReadReq_mshr_miss_rate::total     0.000008                       # mshr miss rate for ReadReq accesses
system.cpu.icache.ReadReq_avg_mshr_miss_latency::.cpu.inst 77173.333333                       # average ReadReq mshr miss latency
system.cpu.icache.ReadReq_avg_mshr_miss_latency::total 77173.333333                       # average ReadReq mshr miss latency
system.cpu.icache.power_state.pwrStateResidencyTicks::UNDEFINED 191319011500                       # Cumulative time (in ticks) in various power states
system.cpu.icache.tags.tagsinuse          1024.447945                       # Cycle average of tags in use
system.cpu.icache.tags.total_refs           139745701                       # Total number of references to valid blocks.
system.cpu.icache.tags.sampled_refs              1050                       # Sample count of references to valid blocks.
system.cpu.icache.tags.avg_refs          133091.143810                       # Average number of references to valid blocks.
system.cpu.icache.tags.warmup_cycle             87500                       # Cycle when the warmup percentage was hit.
system.cpu.icache.tags.occ_blocks::.cpu.inst  1024.447945                       # Average occupied blocks per requestor
system.cpu.icache.tags.occ_percent::.cpu.inst     0.250109                       # Average percentage of cache occupancy
system.cpu.icache.tags.occ_percent::total     0.250109                       # Average percentage of cache occupancy
system.cpu.icache.tags.occ_task_id_blocks::1024         1029                       # Occupied blocks per task id
system.cpu.icache.tags.age_task_id_blocks_1024::4         1029                       # Occupied blocks per task id
system.cpu.icache.tags.occ_task_id_percent::1024     0.251221                       # Percentage of cache occupancy per task id
system.cpu.icache.tags.tag_accesses         279492452                       # Number of tag accesses
system.cpu.icache.tags.data_accesses        279492452                       # Number of data accesses
system.cpu.icache.tags.power_state.pwrStateResidencyTicks::UNDEFINED 191319011500                       # Cumulative time (in ticks) in various power states
system.cpu.interrupts.clk_domain.clock           8000                       # Clock period in ticks
system.cpu.itb.rdAccesses                           0                       # TLB accesses on read requests
system.cpu.itb.wrAccesses                   139745701                       # TLB accesses on write requests
system.cpu.itb.rdMisses                             0                       # TLB misses on read requests
system.cpu.itb.wrMisses                            51                       # TLB misses on write requests
system.cpu.itb.walker.power_state.pwrStateResidencyTicks::UNDEFINED 191319011500                       # Cumulative time (in ticks) in various power states
system.cpu.itb_walker_cache.blocked_cycles::no_mshrs            0                       # number of cycles access was blocked
system.cpu.itb_walker_cache.blocked_cycles::no_targets            0                       # number of cycles access was blocked
system.cpu.itb_walker_cache.blocked::no_mshrs            0                       # number of cycles access was blocked
system.cpu.itb_walker_cache.blocked::no_targets            0                       # number of cycles access was blocked
system.cpu.itb_walker_cache.avg_blocked_cycles::no_mshrs          nan                       # average number of cycles each access was blocked
system.cpu.itb_walker_cache.avg_blocked_cycles::no_targets          nan                       # average number of cycles each access was blocked
system.cpu.itb_walker_cache.replacements            0                       # number of replacements
system.cpu.itb_walker_cache.power_state.pwrStateResidencyTicks::UNDEFINED 191319011500                       # Cumulative time (in ticks) in various power states
system.cpu.itb_walker_cache.tags.tagsinuse            0                       # Cycle average of tags in use
system.cpu.itb_walker_cache.tags.total_refs            0                       # Total number of references to valid blocks.
system.cpu.itb_walker_cache.tags.sampled_refs            0                       # Sample count of references to valid blocks.
system.cpu.itb_walker_cache.tags.avg_refs          nan                       # Average number of references to valid blocks.
system.cpu.itb_walker_cache.tags.warmup_cycle            0                       # Cycle when the warmup percentage was hit.
system.cpu.itb_walker_cache.tags.tag_accesses            0                       # Number of tag accesses
system.cpu.itb_walker_cache.tags.data_accesses            0                       # Number of data accesses
system.cpu.itb_walker_cache.tags.power_state.pwrStateResidencyTicks::UNDEFINED 191319011500                       # Cumulative time (in ticks) in various power states
system.cpu.power_state.pwrStateResidencyTicks::ON 191319011500                       # Cumulative time (in ticks) in various power states
system.cpu.thread_0.numInsts                        0                       # Number of Instructions committed
system.cpu.thread_0.numOps                          0                       # Number of Ops committed
system.cpu.thread_0.numMemRefs                      0                       # Number of Memory References
system.cpu_clk_domain.clock                       500                       # Clock period in ticks
system.cpu_voltage_domain.voltage                   1                       # Voltage in Volts
system.l2.demand_hits::.cpu.data                  956                       # number of demand (read+write) hits
system.l2.demand_hits::total                      956                       # number of demand (read+write) hits
system.l2.overall_hits::.cpu.data                 956                       # number of overall hits
system.l2.overall_hits::total                     956                       # number of overall hits
system.l2.demand_misses::.cpu.inst               1050                       # number of demand (read+write) misses
system.l2.demand_misses::.cpu.data             159397                       # number of demand (read+write) misses
system.l2.demand_misses::total                 160447                       # number of demand (read+write) misses
system.l2.overall_misses::.cpu.inst              1050                       # number of overall misses
system.l2.overall_misses::.cpu.data            159397                       # number of overall misses
system.l2.overall_misses::total                160447                       # number of overall misses
system.l2.demand_miss_latency::.cpu.inst     79457000                       # number of demand (read+write) miss cycles
system.l2.demand_miss_latency::.cpu.data  12520062500                       # number of demand (read+write) miss cycles
system.l2.demand_miss_latency::total      12599519500                       # number of demand (read+write) miss cycles
system.l2.overall_miss_latency::.cpu.inst     79457000                       # number of overall miss cycles
system.l2.overall_miss_latency::.cpu.data  12520062500                       # number of overall miss cycles
system.l2.overall_miss_latency::total     12599519500                       # number of overall miss cycles
system.l2.demand_accesses::.cpu.inst             1050                       # number of demand (read+write) accesses
system.l2.demand_accesses::.cpu.data           160353                       # number of demand (read+write) accesses
system.l2.demand_accesses::total               161403                       # number of demand (read+write) accesses
system.l2.overall_accesses::.cpu.inst            1050                       # number of overall (read+write) accesses
system.l2.overall_accesses::.cpu.data          160353                       # number of overall (read+write) accesses
system.l2.overall_accesses::total              161403                       # number of overall (read+write) accesses
system.l2.demand_miss_rate::.cpu.inst               1                       # miss rate for demand accesses
system.l2.demand_miss_rate::.cpu.data        0.994038                       # miss rate for demand accesses
system.l2.demand_miss_rate::total            0.994077                       # miss rate for demand accesses
system.l2.overall_miss_rate::.cpu.inst              1                       # miss rate for overall accesses
system.l2.overall_miss_rate::.cpu.data       0.994038                       # miss rate for overall accesses
system.l2.overall_miss_rate::total           0.994077                       # miss rate for overall accesses
system.l2.demand_avg_miss_latency::.cpu.inst 75673.333333                       # average overall miss latency
system.l2.demand_avg_miss_latency::.cpu.data 78546.412417                       # average overall miss latency
system.l2.demand_avg_miss_latency::total 78527.610364                       # average overall miss latency
system.l2.overall_avg_miss_latency::.cpu.inst 75673.333333                       # average overall miss latency
system.l2.overall_avg_miss_latency::.cpu.data 78546.412417                       # average overall miss latency
system.l2.overall_avg_miss_latency::total 78527.610364                       # average overall miss latency
system.l2.blocked_cycles::no_mshrs                  0                       # number of cycles access was blocked
system.l2.blocked_cycles::no_targets                0                       # number of cycles access was blocked
system.l2.blocked::no_mshrs                         0                       # number of cycles access was blocked
system.l2.blocked::no_targets                       0                       # number of cycles access was blocked
system.l2.avg_blocked_cycles::no_mshrs            nan                       # average number of cycles each access was blocked
system.l2.avg_blocked_cycles::no_targets          nan                       # average number of cycles each access was blocked
system.l2.writebacks::.writebacks              151567                       # number of writebacks
system.l2.writebacks::total                    151567                       # number of writebacks
system.l2.demand_mshr_misses::.cpu.inst          1050                       # number of demand (read+write) MSHR misses
system.l2.demand_mshr_misses::.cpu.data        159397                       # number of demand (read+write) MSHR misses
system.l2.demand_mshr_misses::total            160447                       # number of demand (read+write) MSHR misses
system.l2.overall_mshr_misses::.cpu.inst         1050                       # number of overall MSHR misses
system.l2.overall_mshr_misses::.cpu.data       159397                       # number of overall MSHR misses
system.l2.overall_mshr_misses::total           160447                       # number of overall MSHR misses
system.l2.demand_mshr_miss_latency::.cpu.inst     68957000                       # number of demand (read+write) MSHR miss cycles
system.l2.demand_mshr_miss_latency::.cpu.data  10926092500                       # number of demand (read+write) MSHR miss cycles
system.l2.demand_mshr_miss_latency::total  10995049500                       # number of demand (read+write) MSHR miss cycles
system.l2.overall_mshr_miss_latency::.cpu.inst     68957000                       # number of overall MSHR miss cycles
system.l2.overall_mshr_miss_latency::.cpu.data  10926092500                       # number of overall MSHR miss cycles
system.l2.overall_mshr_miss_latency::total  10995049500                       # number of overall MSHR miss cycles
system.l2.demand_mshr_miss_rate::.cpu.inst            1                       # mshr miss rate for demand accesses
system.l2.demand_mshr_miss_rate::.cpu.data     0.994038                       # mshr miss rate for demand accesses
system.l2.demand_mshr_miss_rate::total       0.994077                       # mshr miss rate for demand accesses
system.l2.overall_mshr_miss_rate::.cpu.inst            1                       # mshr miss rate for overall accesses
system.l2.overall_mshr_miss_rate::.cpu.data     0.994038                       # mshr miss rate for overall accesses
system.l2.overall_mshr_miss_rate::total      0.994077                       # mshr miss rate for overall accesses
system.l2.demand_avg_mshr_miss_latency::.cpu.inst 65673.333333                       # average overall mshr miss latency
system.l2.demand_avg_mshr_miss_latency::.cpu.data 68546.412417                       # average overall mshr miss latency
system.l2.demand_avg_mshr_miss_latency::total 68527.610364                       # average overall mshr miss latency
system.l2.overall_avg_mshr_miss_latency::.cpu.inst 65673.333333                       # average overall mshr miss latency
system.l2.overall_avg_mshr_miss_latency::.cpu.data 68546.412417                       # average overall mshr miss latency
system.l2.overall_avg_mshr_miss_latency::total 68527.610364                       # average overall mshr miss latency
system.l2.replacements                         310065                       # number of replacements
system.l2.WritebackDirty_hits::.writebacks       154553                       # number of WritebackDirty hits
system.l2.WritebackDirty_hits::total           154553                       # number of WritebackDirty hits
system.l2.WritebackDirty_accesses::.writebacks       154553                       # number of WritebackDirty accesses(hits+misses)
system.l2.WritebackDirty_accesses::total       154553                       # number of WritebackDirty accesses(hits+misses)
system.l2.WritebackClean_hits::.writebacks           21                       # number of WritebackClean hits
system.l2.WritebackClean_hits::total               21                       # number of WritebackClean hits
system.l2.WritebackClean_accesses::.writebacks           21                       # number of WritebackClean accesses(hits+misses)
system.l2.WritebackClean_accesses::total           21                       # number of WritebackClean accesses(hits+misses)
system.l2.CleanEvict_mshr_misses::.writebacks         1683                       # number of CleanEvict MSHR misses
system.l2.CleanEvict_mshr_misses::total          1683                       # number of CleanEvict MSHR misses
system.l2.CleanEvict_mshr_miss_rate::.writebacks          inf                       # mshr miss rate for CleanEvict accesses
system.l2.CleanEvict_mshr_miss_rate::total          inf                       # mshr miss rate for CleanEvict accesses
system.l2.ReadExReq_misses::.cpu.data          137555                       # number of ReadExReq misses
system.l2.ReadExReq_misses::total              137555                       # number of ReadExReq misses
system.l2.ReadExReq_miss_latency::.cpu.data  10655812000                       # number of ReadExReq miss cycles
system.l2.ReadExReq_miss_latency::total   10655812000                       # number of ReadExReq miss cycles
system.l2.ReadExReq_accesses::.cpu.data        137555                       # number of ReadExReq accesses(hits+misses)
system.l2.ReadExReq_accesses::total            137555                       # number of ReadExReq accesses(hits+misses)
system.l2.ReadExReq_miss_rate::.cpu.data            1                       # miss rate for ReadExReq accesses
system.l2.ReadExReq_miss_rate::total                1                       # miss rate for ReadExReq accesses
system.l2.ReadExReq_avg_miss_latency::.cpu.data 77465.828214                       # average ReadExReq miss latency
system.l2.ReadExReq_avg_miss_latency::total 77465.828214                       # average ReadExReq miss latency
system.l2.ReadExReq_mshr_misses::.cpu.data       137555                       # number of ReadExReq MSHR misses
system.l2.ReadExReq_mshr_misses::total         137555                       # number of ReadExReq MSHR misses
system.l2.ReadExReq_mshr_miss_latency::.cpu.data   9280262000                       # number of ReadExReq MSHR miss cycles
system.l2.ReadExReq_mshr_miss_latency::total   9280262000                       # number of ReadExReq MSHR miss cycles
system.l2.ReadExReq_mshr_miss_rate::.cpu.data            1                       # mshr miss rate for ReadExReq accesses
system.l2.ReadExReq_mshr_miss_rate::total            1                       # mshr miss rate for ReadExReq accesses
system.l2.ReadExReq_avg_mshr_miss_latency::.cpu.data 67465.828214                       # average ReadExReq mshr miss latency
system.l2.ReadExReq_avg_mshr_miss_latency::total 67465.828214                       # average ReadExReq mshr miss latency
system.l2.ReadCleanReq_misses::.cpu.inst         1050                       # number of ReadCleanReq misses
system.l2.ReadCleanReq_misses::total             1050                       # number of ReadCleanReq misses
system.l2.ReadCleanReq_miss_latency::.cpu.inst     79457000                       # number of ReadCleanReq miss cycles
system.l2.ReadCleanReq_miss_latency::total     79457000                       # number of ReadCleanReq miss cycles
system.l2.ReadCleanReq_accesses::.cpu.inst         1050                       # number of ReadCleanReq accesses(hits+misses)
system.l2.ReadCleanReq_accesses::total           1050                       # number of ReadCleanReq accesses(hits+misses)
system.l2.ReadCleanReq_miss_rate::.cpu.inst            1                       # miss rate for ReadCleanReq accesses
system.l2.ReadCleanReq_miss_rate::total             1                       # miss rate for ReadCleanReq accesses
system.l2.ReadCleanReq_avg_miss_latency::.cpu.inst 75673.333333                       # average ReadCleanReq miss latency
system.l2.ReadCleanReq_avg_miss_latency::total 75673.333333                       # average ReadCleanReq miss latency
system.l2.ReadCleanReq_mshr_misses::.cpu.inst         1050                       # number of ReadCleanReq MSHR misses
system.l2.ReadCleanReq_mshr_misses::total         1050                       # number of ReadCleanReq MSHR misses
system.l2.ReadCleanReq_mshr_miss_latency::.cpu.inst     68957000                       # number of ReadCleanReq MSHR miss cycles
system.l2.ReadCleanReq_mshr_miss_latency::total     68957000                       # number of ReadCleanReq MSHR miss cycles
system.l2.ReadCleanReq_mshr_miss_rate::.cpu.inst            1                       # mshr miss rate for ReadCleanReq accesses
system.l2.ReadCleanReq_mshr_miss_rate::total            1                       # mshr miss rate for ReadCleanReq accesses
system.l2.ReadCleanReq_avg_mshr_miss_latency::.cpu.inst 65673.333333                       # average ReadCleanReq mshr miss latency
system.l2.ReadCleanReq_avg_mshr_miss_latency::total 65673.333333                       # average ReadCleanReq mshr miss latency
system.l2.ReadSharedReq_hits::.cpu.data           956                       # number of ReadSharedReq hits
system.l2.ReadSharedReq_hits::total               956                       # number of ReadSharedReq hits
system.l2.ReadSharedReq_misses::.cpu.data        21842                       # number of ReadSharedReq misses
system.l2.ReadSharedReq_misses::total           21842                       # number of ReadSharedReq misses
system.l2.ReadSharedReq_miss_latency::.cpu.data   1864250500                       # number of ReadSharedReq miss cycles
system.l2.ReadSharedReq_miss_latency::total   1864250500                       # number of ReadSharedReq miss cycles
system.l2.ReadSharedReq_accesses::.cpu.data        22798                       # number of ReadSharedReq accesses(hits+misses)
system.l2.ReadSharedReq_accesses::total         22798                       # number of ReadSharedReq accesses(hits+misses)
system.l2.ReadSharedReq_miss_rate::.cpu.data     0.958066                       # miss rate for ReadSharedReq accesses
system.l2.ReadSharedReq_miss_rate::total     0.958066                       # miss rate for ReadSharedReq accesses
system.l2.ReadSharedReq_avg_miss_latency::.cpu.data 85351.639044                       # average ReadSharedReq miss latency
system.l2.ReadSharedReq_avg_miss_latency::total 85351.639044                       # average ReadSharedReq miss latency
system.l2.ReadSharedReq_mshr_misses::.cpu.data        21842                       # number of ReadSharedReq MSHR misses
system.l2.ReadSharedReq_mshr_misses::total        21842                       # number of ReadSharedReq MSHR misses
system.l2.ReadSharedReq_mshr_miss_latency::.cpu.data   1645830500                       # number of ReadSharedReq MSHR miss cycles
system.l2.ReadSharedReq_mshr_miss_latency::total   1645830500                       # number of ReadSharedReq MSHR miss cycles
system.l2.ReadSharedReq_mshr_miss_rate::.cpu.data     0.958066                       # mshr miss rate for ReadSharedReq accesses
system.l2.ReadSharedReq_mshr_miss_rate::total     0.958066                       # mshr miss rate for ReadSharedReq accesses
system.l2.ReadSharedReq_avg_mshr_miss_latency::.cpu.data 75351.639044                       # average ReadSharedReq mshr miss latency
system.l2.ReadSharedReq_avg_mshr_miss_latency::total 75351.639044                       # average ReadSharedReq mshr miss latency
system.l2.power_state.pwrStateResidencyTicks::UNDEFINED 191319011500                       # Cumulative time (in ticks) in various power states
system.l2.tags.tagsinuse                  4083.226973                       # Cycle average of tags in use
system.l2.tags.total_refs                      315998                       # Total number of references to valid blocks.
system.l2.tags.sampled_refs                    314161                       # Sample count of references to valid blocks.
system.l2.tags.avg_refs                      1.005847                       # Average number of references to valid blocks.
system.l2.tags.warmup_cycle                     77000                       # Cycle when the warmup percentage was hit.
system.l2.tags.occ_blocks::.writebacks    2026.065352                       # Average occupied blocks per requestor
system.l2.tags.occ_blocks::.cpu.inst         5.678689                       # Average occupied blocks per requestor
system.l2.tags.occ_blocks::.cpu.data      2051.482932                       # Average occupied blocks per requestor
system.l2.tags.occ_percent::.writebacks      0.494645                       # Average percentage of cache occupancy
system.l2.tags.occ_percent::.cpu.inst        0.001386                       # Average percentage of cache occupancy
system.l2.tags.occ_percent::.cpu.data        0.500850                       # Average percentage of cache occupancy
system.l2.tags.occ_percent::total            0.996882                       # Average percentage of cache occupancy
system.l2.tags.occ_task_id_blocks::1024          4096                       # Occupied blocks per task id
system.l2.tags.age_task_id_blocks_1024::0           10                       # Occupied blocks per task id
system.l2.tags.age_task_id_blocks_1024::1          102                       # Occupied blocks per task id
system.l2.tags.age_task_id_blocks_1024::2         1117                       # Occupied blocks per task id
system.l2.tags.age_task_id_blocks_1024::3         2867                       # Occupied blocks per task id
system.l2.tags.occ_task_id_percent::1024            1                       # Percentage of cache occupancy per task id
system.l2.tags.tag_accesses                    949523                       # Number of tag accesses
system.l2.tags.data_accesses                   949523                       # Number of data accesses
system.l2.tags.power_state.pwrStateResidencyTicks::UNDEFINED 191319011500                       # Cumulative time (in ticks) in various power states
system.mem_ctrls.avgPriority_.writebacks::samples    143446.00                       # Average QoS priority value for accepted requests
system.mem_ctrls.avgPriority_.cpu.inst::samples      1050.00                       # Average QoS priority value for accepted requests
system.mem_ctrls.avgPriority_.cpu.data::samples    159369.00                       # Average QoS priority value for accepted requests
system.mem_ctrls.priorityMinLatency      0.000000018750                       # per QoS priority minimum request to response latency (s)
system.mem_ctrls.priorityMaxLatency      0.000970144500                       # per QoS priority maximum request to response latency (s)
system.mem_ctrls.numReadWriteTurnArounds         8194                       # Number of turnarounds from READ to WRITE
system.mem_ctrls.numWriteReadTurnArounds         8194                       # Number of turnarounds from WRITE to READ
system.mem_ctrls.numStayReadState              516071                       # Number of times bus staying in READ state
system.mem_ctrls.numStayWriteState             135352                       # Number of times bus staying in WRITE state
system.mem_ctrls.readReqs                      160447                       # Number of read requests accepted
system.mem_ctrls.writeReqs                     151567                       # Number of write requests accepted
system.mem_ctrls.readBursts                    160447                       # Number of controller read bursts, including those serviced by the write queue
system.mem_ctrls.writeBursts                   151567                       # Number of controller write bursts, including those merged in the write queue
system.mem_ctrls.servicedByWrQ                     28                       # Number of controller read bursts serviced by the write queue
system.mem_ctrls.mergedWrBursts                  8121                       # Number of controller write bursts merged with an existing one
system.mem_ctrls.neitherReadNorWriteReqs            0                       # Number of requests that are neither read nor write
system.mem_ctrls.avgRdQLen                       1.00                       # Average read queue length when enqueuing
system.mem_ctrls.avgWrQLen                      24.54                       # Average write queue length when enqueuing
system.mem_ctrls.numRdRetry                         0                       # Number of times read queue was full causing retry
system.mem_ctrls.numWrRetry                         0                       # Number of times write queue was full causing retry
system.mem_ctrls.readPktSize::0                     0                       # Read request sizes (log2)
system.mem_ctrls.readPktSize::1                     0                       # Read request sizes (log2)
system.mem_ctrls.readPktSize::2                     0                       # Read request sizes (log2)
system.mem_ctrls.readPktSize::3                     0                       # Read request sizes (log2)
system.mem_ctrls.readPktSize::4                     0                       # Read request sizes (log2)
system.mem_ctrls.readPktSize::5                160447                       # Read request sizes (log2)
system.mem_ctrls.writePktSize::0                    0                       # Write request sizes (log2)
system.mem_ctrls.writePktSize::1                    0                       # Write request sizes (log2)
system.mem_ctrls.writePktSize::2                    0                       # Write request sizes (log2)
system.mem_ctrls.writePktSize::3                    0                       # Write request sizes (log2)
system.mem_ctrls.writePktSize::4                    0                       # Write request sizes (log2)
system.mem_ctrls.writePktSize::5               151567                       # Write request sizes (log2)
system.mem_ctrls.rdQLenPdf::0                  160419                       # What read queue length does an incoming req see
system.mem_ctrls.rdQLenPdf::1                       0                       # What read queue length does an incoming req see
system.mem_ctrls.rdQLenPdf::2                       0                       # What read queue length does an incoming req see
system.mem_ctrls.rdQLenPdf::3                       0                       # What read queue length does an incoming req see
system.mem_ctrls.rdQLenPdf::4                       0                       # What read queue length does an incoming req see
system.mem_ctrls.rdQLenPdf::5                       0                       # What read queue length does an incoming req see
system.mem_ctrls.rdQLenPdf::6                       0                       # What read queue length does an incoming req see
system.mem_ctrls.rdQLenPdf::7                       0                       # What read queue length does an incoming req see
system.mem_ctrls.rdQLenPdf::8                       0                       # What read queue length does an incoming req see
system.mem_ctrls.rdQLenPdf::9                       0                       # What read queue length does an incoming req see
system.mem_ctrls.rdQLenPdf::10                      0                       # What read queue length does an incoming req see
system.mem_ctrls.rdQLenPdf::11                      0                       # What read queue length does an incoming req see
system.mem_ctrls.rdQLenPdf::12                      0                       # What read queue length does an incoming req see
system.mem_ctrls.rdQLenPdf::13                      0                       # What read queue length does an incoming req see
system.mem_ctrls.rdQLenPdf::14                      0                       # What read queue length does an incoming req see
system.mem_ctrls.rdQLenPdf::15                      0                       # What read queue length does an incoming req see
system.mem_ctrls.rdQLenPdf::16                      0                       # What read queue length does an incoming req see
system.mem_ctrls.rdQLenPdf::17                      0                       # What read queue length does an incoming req see
system.mem_ctrls.rdQLenPdf::18                      0                       # What read queue length does an incoming req see
system.mem_ctrls.rdQLenPdf::19                      0                       # What read queue length does an incoming req see
system.mem_ctrls.rdQLenPdf::20                      0                       # What read queue length does an incoming req see
system.mem_ctrls.rdQLenPdf::21                      0                       # What read queue length does an incoming req see
system.mem_ctrls.rdQLenPdf::22                      0                       # What read queue length does an incoming req see
system.mem_ctrls.rdQLenPdf::23                      0                       # What read queue length does an incoming req see
system.mem_ctrls.rdQLenPdf::24                      0                       # What read queue length does an incoming req see
system.mem_ctrls.rdQLenPdf::25                      0                       # What read queue length does an incoming req see
system.mem_ctrls.rdQLenPdf::26                      0                       # What read queue length does an incoming req see
system.mem_ctrls.rdQLenPdf::27                      0                       # What read queue length does an incoming req see
system.mem_ctrls.rdQLenPdf::28                      0                       # What read queue length does an incoming req see
system.mem_ctrls.rdQLenPdf::29                      0                       # What read queue length does an incoming req see
system.mem_ctrls.rdQLenPdf::30                      0                       # What read queue length does an incoming req see
system.mem_ctrls.rdQLenPdf::31                      0                       # What read queue length does an incoming req see
system.mem_ctrls.wrQLenPdf::0                       1                       # What write queue length does an incoming req see
system.mem_ctrls.wrQLenPdf::1                       1                       # What write queue length does an incoming req see
system.mem_ctrls.wrQLenPdf::2                       1                       # What write queue length does an incoming req see
system.mem_ctrls.wrQLenPdf::3                       1                       # What write queue length does an incoming req see
system.mem_ctrls.wrQLenPdf::4                       1                       # What write queue length does an incoming req see
system.mem_ctrls.wrQLenPdf::5                       1                       # What write queue length does an incoming req see
system.mem_ctrls.wrQLenPdf::6                       1                       # What write queue length does an incoming req see
system.mem_ctrls.wrQLenPdf::7                       1                       # What write queue length does an incoming req see
system.mem_ctrls.wrQLenPdf::8                       1                       # What write queue length does an incoming req see
system.mem_ctrls.wrQLenPdf::9                       1                       # What write queue length does an incoming req see
system.mem_ctrls.wrQLenPdf::10                      1                       # What write queue length does an incoming req see
system.mem_ctrls.wrQLenPdf::11                      1                       # What write queue length does an incoming req see
system.mem_ctrls.wrQLenPdf::12                      1                       # What write queue length does an incoming req see
system.mem_ctrls.wrQLenPdf::13                      1                       # What write queue length does an incoming req see
system.mem_ctrls.wrQLenPdf::14                      1                       # What write queue length does an incoming req see
system.mem_ctrls.wrQLenPdf::15                   5517                       # What write queue length does an incoming req see
system.mem_ctrls.wrQLenPdf::16                   5689                       # What write queue length does an incoming req see
system.mem_ctrls.wrQLenPdf::17                   7530                       # What write queue length does an incoming req see
system.mem_ctrls.wrQLenPdf::18                   8303                       # What write queue length does an incoming req see
system.mem_ctrls.wrQLenPdf::19                   8365                       # What write queue length does an incoming req see
system.mem_ctrls.wrQLenPdf::20                   8242                       # What write queue length does an incoming req see
system.mem_ctrls.wrQLenPdf::21                   8202                       # What write queue length does an incoming req see
system.mem_ctrls.wrQLenPdf::22                   8199                       # What write queue length does an incoming req see
system.mem_ctrls.wrQLenPdf::23                   8248                       # What write queue length does an incoming req see
system.mem_ctrls.wrQLenPdf::24                   8215                       # What write queue length does an incoming req see
system.mem_ctrls.wrQLenPdf::25                   9042                       # What write queue length does an incoming req see
system.mem_ctrls.wrQLenPdf::26                   8694                       # What write queue length does an incoming req see
system.mem_ctrls.wrQLenPdf::27                   8203                       # What write queue length does an incoming req see
system.mem_ctrls.wrQLenPdf::28                   8194                       # What write queue length does an incoming req see
system.mem_ctrls.wrQLenPdf::29                   8195                       # What write queue length does an incoming req see
system.mem_ctrls.wrQLenPdf::30                   8195                       # What write queue length does an incoming req see
system.mem_ctrls.wrQLenPdf::31                   8194                       # What write queue length does an incoming req see
system.mem_ctrls.wrQLenPdf::32                   8194                       # What write queue length does an incoming req see
system.mem_ctrls.wrQLenPdf::33                     10                       # What write queue length does an incoming req see
system.mem_ctrls.wrQLenPdf::34                      0                       # What write queue length does an incoming req see
system.mem_ctrls.wrQLenPdf::35                      0                       # What write queue length does an incoming req see
system.mem_ctrls.wrQLenPdf::36                      0                       # What write queue length does an incoming req see
system.mem_ctrls.wrQLenPdf::37                      0                       # What write queue length does an incoming req see
system.mem_ctrls.wrQLenPdf::38                      0                       # What write queue length does an incoming req see
system.mem_ctrls.wrQLenPdf::39                      0                       # What write queue length does an incoming req see
system.mem_ctrls.wrQLenPdf::40                      0                       # What write queue length does an incoming req see
system.mem_ctrls.wrQLenPdf::41                      0                       # What write queue length does an incoming req see
system.mem_ctrls.wrQLenPdf::42                      0                       # What write queue length does an incoming req see
system.mem_ctrls.wrQLenPdf::43                      0                       # What write queue length does an incoming req see
system.mem_ctrls.wrQLenPdf::44                      0                       # What write queue length does an incoming req see
system.mem_ctrls.wrQLenPdf::45                      0                       # What write queue length does an incoming req see
system.mem_ctrls.wrQLenPdf::46                      0                       # What write queue length does an incoming req see
system.mem_ctrls.wrQLenPdf::47                      0                       # What write queue length does an incoming req see
system.mem_ctrls.wrQLenPdf::48                      0                       # What write queue length does an incoming req see
system.mem_ctrls.wrQLenPdf::49                      0                       # What write queue length does an incoming req see
system.mem_ctrls.wrQLenPdf::50                      0                       # What write queue length does an incoming req see
system.mem_ctrls.wrQLenPdf::51                      0                       # What write queue length does an incoming req see
system.mem_ctrls.wrQLenPdf::52                      0                       # What write queue length does an incoming req see
system.mem_ctrls.wrQLenPdf::53                      0                       # What write queue length does an incoming req see
system.mem_ctrls.wrQLenPdf::54                      0                       # What write queue length does an incoming req see
system.mem_ctrls.wrQLenPdf::55                      0                       # What write queue length does an incoming req see
system.mem_ctrls.wrQLenPdf::56                      0                       # What write queue length does an incoming req see
system.mem_ctrls.wrQLenPdf::57                      0                       # What write queue length does an incoming req see
system.mem_ctrls.wrQLenPdf::58                      0                       # What write queue length does an incoming req see
system.mem_ctrls.wrQLenPdf::59                      0                       # What write queue length does an incoming req see
system.mem_ctrls.wrQLenPdf::60                      0                       # What write queue length does an incoming req see
system.mem_ctrls.wrQLenPdf::61                      0                       # What write queue length does an incoming req see
system.mem_ctrls.wrQLenPdf::62                      0                       # What write queue length does an incoming req see
system.mem_ctrls.wrQLenPdf::63                      0                       # What write queue length does an incoming req see
system.mem_ctrls.rdPerTurnAround::samples         8194                       # Reads before turning the bus around for writes
system.mem_ctrls.rdPerTurnAround::mean      19.576275                       # Reads before turning the bus around for writes
system.mem_ctrls.rdPerTurnAround::gmean     18.421495                       # Reads before turning the bus around for writes
system.mem_ctrls.rdPerTurnAround::stdev     70.544550                       # Reads before turning the bus around for writes
system.mem_ctrls.rdPerTurnAround::0-255          8193     99.99%     99.99% # Reads before turning the bus around for writes
system.mem_ctrls.rdPerTurnAround::6144-6399            1      0.01%    100.00% # Reads before turning the bus around for writes
system.mem_ctrls.rdPerTurnAround::total          8194                       # Reads before turning the bus around for writes
system.mem_ctrls.wrPerTurnAround::samples         8194                       # Writes before turning the bus around for reads
system.mem_ctrls.wrPerTurnAround::mean      17.502929                       # Writes before turning the bus around for reads
system.mem_ctrls.wrPerTurnAround::gmean     17.467998                       # Writes before turning the bus around for reads
system.mem_ctrls.wrPerTurnAround::stdev      1.097050                       # Writes before turning the bus around for reads
system.mem_ctrls.wrPerTurnAround::16             2608     31.83%     31.83% # Writes before turning the bus around for reads
system.mem_ctrls.wrPerTurnAround::17               66      0.81%     32.63% # Writes before turning the bus around for reads
system.mem_ctrls.wrPerTurnAround::18             4400     53.70%     86.33% # Writes before turning the bus around for reads
system.mem_ctrls.wrPerTurnAround::19             1031     12.58%     98.91% # Writes before turning the bus around for reads
system.mem_ctrls.wrPerTurnAround::20               89      1.09%    100.00% # Writes before turning the bus around for reads
system.mem_ctrls.wrPerTurnAround::total          8194                       # Writes before turning the bus around for reads
system.mem_ctrls.bytesReadWrQ                    1792                       # Total number of bytes read from write queue
system.mem_ctrls.bytesReadSys                 5134304                       # Total read bytes from the system interface side
system.mem_ctrls.bytesWrittenSys              4850144                       # Total written bytes from the system interface side
system.mem_ctrls.avgRdBWSys                     26.84                       # Average system read bandwidth in MiByte/s
system.mem_ctrls.avgWrBWSys                     25.35                       # Average system write bandwidth in MiByte/s
system.mem_ctrls.totGap                  191316774500                       # Total gap between requests
system.mem_ctrls.avgGap                     613167.28                       # Average gap between requests
system.mem_ctrls.requestorReadBytes::.cpu.inst        33600                       # Per-requestor bytes read from memory
system.mem_ctrls.requestorReadBytes::.cpu.data      5099808                       # Per-requestor bytes read from memory
system.mem_ctrls.requestorWriteBytes::.writebacks      4589408                       # Per-requestor bytes write to memory
system.mem_ctrls.requestorReadRate::.cpu.inst 175622.901961313968                       # Per-requestor bytes read from memory rate (Bytes/sec)
system.mem_ctrls.requestorReadRate::.cpu.data 26656044.059688236564                       # Per-requestor bytes read from memory rate (Bytes/sec)
system.mem_ctrls.requestorWriteRate::.writebacks 23988248.548942562193                       # Per-requestor bytes write to memory rate (Bytes/sec)
system.mem_ctrls.requestorReadAccesses::.cpu.inst         1050                       # Per-requestor read serviced memory accesses
system.mem_ctrls.requestorReadAccesses::.cpu.data       159397                       # Per-requestor read serviced memory accesses
system.mem_ctrls.requestorWriteAccesses::.writebacks       151567                       # Per-requestor write serviced memory accesses
system.mem_ctrls.requestorReadTotalLat::.cpu.inst     26110750                       # Per-requestor read total memory access latency
system.mem_ctrls.requestorReadTotalLat::.cpu.data   4413794000                       # Per-requestor read total memory access latency
[...]
system.mem_ctrls.dram.bw_total::.cpu.data     26660727                       # Total bandwidth to/from this memory (bytes/s)
system.mem_ctrls.dram.bw_total::total        52187433                       # Total bandwidth to/from this memory (bytes/s)
system.mem_ctrls.dram.readBursts               160419                       # Number of DRAM read bursts
system.mem_ctrls.dram.writeBursts              143419                       # Number of DRAM write bursts
system.mem_ctrls.dram.perBankRdBursts::0        10138                       # Per bank write bursts
system.mem_ctrls.dram.perBankRdBursts::1        10205                       # Per bank write bursts
system.mem_ctrls.dram.perBankRdBursts::2        10072                       # Per bank write bursts
system.mem_ctrls.dram.perBankRdBursts::3         9855                       # Per bank write bursts
system.mem_ctrls.dram.perBankRdBursts::4         9758                       # Per bank write bursts
system.mem_ctrls.dram.perBankRdBursts::5         9801                       # Per bank write bursts
system.mem_ctrls.dram.perBankRdBursts::6         9669                       # Per bank write bursts
system.mem_ctrls.dram.perBankRdBursts::7         9984                       # Per bank write bursts
system.mem_ctrls.dram.perBankRdBursts::8        11343                       # Per bank write bursts
system.mem_ctrls.dram.perBankRdBursts::9         9822                       # Per bank write bursts
system.mem_ctrls.dram.perBankRdBursts::10        10063                       # Per bank write bursts
system.mem_ctrls.dram.perBankRdBursts::11         9922                       # Per bank write bursts
system.mem_ctrls.dram.perBankRdBursts::12         9946                       # Per bank write bursts
system.mem_ctrls.dram.perBankRdBursts::13         9897                       # Per bank write bursts
system.mem_ctrls.dram.perBankRdBursts::14         9963                       # Per bank write bursts
system.mem_ctrls.dram.perBankRdBursts::15         9981                       # Per bank write bursts
system.mem_ctrls.dram.perBankWrBursts::0         8954                       # Per bank write bursts
system.mem_ctrls.dram.perBankWrBursts::1         8967                       # Per bank write bursts
system.mem_ctrls.dram.perBankWrBursts::2         9027                       # Per bank write bursts
system.mem_ctrls.dram.perBankWrBursts::3         8875                       # Per bank write bursts
system.mem_ctrls.dram.perBankWrBursts::4         8959                       # Per bank write bursts
system.mem_ctrls.dram.perBankWrBursts::5         8874                       # Per bank write bursts
system.mem_ctrls.dram.perBankWrBursts::6         8856                       # Per bank write bursts
system.mem_ctrls.dram.perBankWrBursts::7         8911                       # Per bank write bursts
system.mem_ctrls.dram.perBankWrBursts::8         8756                       # Per bank write bursts
system.mem_ctrls.dram.perBankWrBursts::9         8898                       # Per bank write bursts
system.mem_ctrls.dram.perBankWrBursts::10         9030                       # Per bank write bursts
system.mem_ctrls.dram.perBankWrBursts::11         9086                       # Per bank write bursts
system.mem_ctrls.dram.perBankWrBursts::12         9050                       # Per bank write bursts
system.mem_ctrls.dram.perBankWrBursts::13         9100                       # Per bank write bursts
system.mem_ctrls.dram.perBankWrBursts::14         9036                       # Per bank write bursts
system.mem_ctrls.dram.perBankWrBursts::15         9040                       # Per bank write bursts
system.mem_ctrls.dram.totQLat              1432048500                       # Total ticks spent queuing
system.mem_ctrls.dram.totBusLat             802095000                       # Total ticks spent in databus transfers
system.mem_ctrls.dram.totMemAccLat         4439904750                       # Total ticks spent from burst creation until serviced by the DRAM
system.mem_ctrls.dram.avgQLat                 8926.93                       # Average queueing delay per DRAM burst
system.mem_ctrls.dram.avgBusLat               5000.00                       # Average bus latency per DRAM burst
system.mem_ctrls.dram.avgMemAccLat           27676.93                       # Average memory access latency per DRAM burst
system.mem_ctrls.dram.readRowHits              115292                       # Number of row buffer hits during reads
system.mem_ctrls.dram.writeRowHits             108280                       # Number of row buffer hits during writes
system.mem_ctrls.dram.readRowHitRate            71.87                       # Row buffer hit rate for reads
system.mem_ctrls.dram.writeRowHitRate           75.50                       # Row buffer hit rate for writes
system.mem_ctrls.dram.bytesPerActivate::samples        80264                       # Bytes accessed per row activation
system.mem_ctrls.dram.bytesPerActivate::mean   242.268514                       # Bytes accessed per row activation
system.mem_ctrls.dram.bytesPerActivate::gmean   168.602274                       # Bytes accessed per row activation
system.mem_ctrls.dram.bytesPerActivate::stdev   222.843596                       # Bytes accessed per row activation
system.mem_ctrls.dram.bytesPerActivate::0-127        28195     35.13%     35.13% # Bytes accessed per row activation
system.mem_ctrls.dram.bytesPerActivate::128-255        13618     16.97%     52.09% # Bytes accessed per row activation
system.mem_ctrls.dram.bytesPerActivate::256-383        24141     30.08%     82.17% # Bytes accessed per row activation
system.mem_ctrls.dram.bytesPerActivate::384-511         3869      4.82%     86.99% # Bytes accessed per row activation
system.mem_ctrls.dram.bytesPerActivate::512-639         3412      4.25%     91.24% # Bytes accessed per row activation
system.mem_ctrls.dram.bytesPerActivate::640-767         2150      2.68%     93.92% # Bytes accessed per row activation
system.mem_ctrls.dram.bytesPerActivate::768-895         2315      2.88%     96.81% # Bytes accessed per row activation
system.mem_ctrls.dram.bytesPerActivate::896-1023          967      1.20%     98.01% # Bytes accessed per row activation
system.mem_ctrls.dram.bytesPerActivate::1024-1151         1597      1.99%    100.00% # Bytes accessed per row activation
system.mem_ctrls.dram.bytesPerActivate::total        80264                       # Bytes accessed per row activation
system.mem_ctrls.dram.bytesRead              10266816                       # Total number of bytes read from DRAM
system.mem_ctrls.dram.bytesWritten            9178816                       # Total number of bytes written to DRAM
system.mem_ctrls.dram.avgRdBW               53.663334                       # Average DRAM read bandwidth in MiBytes/s
system.mem_ctrls.dram.avgWrBW               47.976497                       # Average DRAM write bandwidth in MiBytes/s
system.mem_ctrls.dram.peakBW                 12800.00                       # Theoretical peak bandwidth in MiByte/s
system.mem_ctrls.dram.busUtil                    0.79                       # Data bus utilization in percentage
system.mem_ctrls.dram.busUtilRead                0.42                       # Data bus utilization in percentage for reads
system.mem_ctrls.dram.busUtilWrite               0.37                       # Data bus utilization in percentage for writes
system.mem_ctrls.dram.pageHitRate               73.58                       # Row buffer hit rate, read and write combined
system.mem_ctrls.dram.power_state.pwrStateResidencyTicks::UNDEFINED 191319011500                       # Cumulative time (in ticks) in various power states
system.mem_ctrls.dram.rank0.actEnergy       279352500                       # Energy for activate commands per rank (pJ)
system.mem_ctrls.dram.rank0.preEnergy       148471785                       # Energy for precharge commands per rank (pJ)
system.mem_ctrls.dram.rank0.readEnergy      567501480                       # Energy for read commands per rank (pJ)
system.mem_ctrls.dram.rank0.writeEnergy     372828060                       # Energy for write commands per rank (pJ)
system.mem_ctrls.dram.rank0.refreshEnergy 15102319440.000002                       # Energy for refresh commands per rank (pJ)
system.mem_ctrls.dram.rank0.actBackEnergy  45116058600                       # Energy for active background per rank (pJ)
system.mem_ctrls.dram.rank0.preBackEnergy  35474030400                       # Energy for precharge background per rank (pJ)
system.mem_ctrls.dram.rank0.actPowerDownEnergy            0                       # Energy for active power-down per rank (pJ)
system.mem_ctrls.dram.rank0.prePowerDownEnergy            0                       # Energy for precharge power-down per rank (pJ)
system.mem_ctrls.dram.rank0.selfRefreshEnergy            0                       # Energy for self refresh per rank (pJ)
system.mem_ctrls.dram.rank0.totalEnergy   97060562265                       # Total energy per rank (pJ)
system.mem_ctrls.dram.rank0.averagePower   507.323143                       # Core power per rank (mW)
system.mem_ctrls.dram.rank0.totalIdleTime            0                       # Total Idle time Per DRAM Rank
system.mem_ctrls.dram.rank0.pwrStateTime::IDLE  91786750250                       # Time in different power states
system.mem_ctrls.dram.rank0.pwrStateTime::REF   6388460000                       # Time in different power states
system.mem_ctrls.dram.rank0.pwrStateTime::SREF            0                       # Time in different power states
system.mem_ctrls.dram.rank0.pwrStateTime::PRE_PDN            0                       # Time in different power states
system.mem_ctrls.dram.rank0.pwrStateTime::ACT  93143801250                       # Time in different power states
system.mem_ctrls.dram.rank0.pwrStateTime::ACT_PDN            0                       # Time in different power states
system.mem_ctrls.dram.rank1.actEnergy       293746740                       # Energy for activate commands per rank (pJ)
system.mem_ctrls.dram.rank1.preEnergy       156130095                       # Energy for precharge commands per rank (pJ)
system.mem_ctrls.dram.rank1.readEnergy      577890180                       # Energy for read commands per rank (pJ)
system.mem_ctrls.dram.rank1.writeEnergy     375819120                       # Energy for write commands per rank (pJ)
system.mem_ctrls.dram.rank1.refreshEnergy 15102319440.000002                       # Energy for refresh commands per rank (pJ)
system.mem_ctrls.dram.rank1.actBackEnergy  46001759370                       # Energy for active background per rank (pJ)
system.mem_ctrls.dram.rank1.preBackEnergy  34728177120                       # Energy for precharge background per rank (pJ)
system.mem_ctrls.dram.rank1.actPowerDownEnergy            0                       # Energy for active power-down per rank (pJ)
system.mem_ctrls.dram.rank1.prePowerDownEnergy            0                       # Energy for precharge power-down per rank (pJ)
system.mem_ctrls.dram.rank1.selfRefreshEnergy            0                       # Energy for self refresh per rank (pJ)
system.mem_ctrls.dram.rank1.totalEnergy   97235842065                       # Total energy per rank (pJ)
system.mem_ctrls.dram.rank1.averagePower   508.239308                       # Core power per rank (mW)
system.mem_ctrls.dram.rank1.totalIdleTime            0                       # Total Idle time Per DRAM Rank
system.mem_ctrls.dram.rank1.pwrStateTime::IDLE  89840560250                       # Time in different power states
system.mem_ctrls.dram.rank1.pwrStateTime::REF   6388460000                       # Time in different power states
system.mem_ctrls.dram.rank1.pwrStateTime::SREF            0                       # Time in different power states
system.mem_ctrls.dram.rank1.pwrStateTime::PRE_PDN            0                       # Time in different power states
system.mem_ctrls.dram.rank1.pwrStateTime::ACT  95089991250                       # Time in different power states
system.mem_ctrls.dram.rank1.pwrStateTime::ACT_PDN            0                       # Time in different power states
system.mem_ctrls.power_state.pwrStateResidencyTicks::UNDEFINED 191319011500                       # Cumulative time (in ticks) in various power states
system.membus.trans_dist::ReadResp              22892                       # Transaction distribution
system.membus.trans_dist::WritebackDirty       151567                       # Transaction distribution
system.membus.trans_dist::CleanEvict             1725                       # Transaction distribution
system.membus.trans_dist::ReadExReq            137555                       # Transaction distribution
system.membus.trans_dist::ReadExResp           137555                       # Transaction distribution
system.membus.trans_dist::ReadSharedReq         22892                       # Transaction distribution
system.membus.pkt_count_system.l2.mem_side_port::system.mem_ctrls.port       474186                       # Packet count per connected requestor and responder (bytes)
system.membus.pkt_count_system.l2.mem_side_port::total       474186                       # Packet count per connected requestor and responder (bytes)
system.membus.pkt_count::total                 474186                       # Packet count per connected requestor and responder (bytes)
system.membus.pkt_size_system.l2.mem_side_port::system.mem_ctrls.port      9984448                       # Cumulative packet size per connected requestor and responder (bytes)
system.membus.pkt_size_system.l2.mem_side_port::total      9984448                       # Cumulative packet size per connected requestor and responder (bytes)
system.membus.pkt_size::total                 9984448                       # Cumulative packet size per connected requestor and responder (bytes)
system.membus.snoops                                0                       # Total snoops (count)
system.membus.snoopTraffic                          0                       # Total snoop traffic (bytes)
system.membus.snoop_fanout::samples            160447                       # Request fanout histogram
system.membus.snoop_fanout::mean                    0                       # Request fanout histogram
system.membus.snoop_fanout::stdev                   0                       # Request fanout histogram
system.membus.snoop_fanout::underflows              0      0.00%      0.00% # Request fanout histogram
system.membus.snoop_fanout::0                  160447    100.00%    100.00% # Request fanout histogram
system.membus.snoop_fanout::1                       0      0.00%    100.00% # Request fanout histogram
system.membus.snoop_fanout::overflows               0      0.00%    100.00% # Request fanout histogram
system.membus.snoop_fanout::min_value               0                       # Request fanout histogram
system.membus.snoop_fanout::max_value               0                       # Request fanout histogram
system.membus.snoop_fanout::total              160447                       # Request fanout histogram
system.membus.power_state.pwrStateResidencyTicks::UNDEFINED 191319011500                       # Cumulative time (in ticks) in various power states
system.membus.reqLayer2.occupancy           622533000                       # Layer occupancy (ticks)
system.membus.reqLayer2.utilization               0.3                       # Layer utilization (%)
system.membus.respLayer1.occupancy          533001250                       # Layer occupancy (ticks)
system.membus.respLayer1.utilization              0.3                       # Layer utilization (%)
system.tol2bus.trans_dist::ReadResp             23848                       # Transaction distribution
system.tol2bus.trans_dist::WritebackDirty       306120                       # Transaction distribution
system.tol2bus.trans_dist::WritebackClean           21                       # Transaction distribution
system.tol2bus.trans_dist::CleanEvict          160202                       # Transaction distribution
system.tol2bus.trans_dist::ReadExReq           137555                       # Transaction distribution
system.tol2bus.trans_dist::ReadExResp          137555                       # Transaction distribution
system.tol2bus.trans_dist::ReadCleanReq          1050                       # Transaction distribution
system.tol2bus.trans_dist::ReadSharedReq        22798                       # Transaction distribution
system.tol2bus.pkt_count_system.cpu.icache.mem_side_port::system.l2.cpu_side_port         2121                       # Packet count per connected requestor and responder (bytes)
system.tol2bus.pkt_count_system.cpu.dcache.mem_side_port::system.l2.cpu_side_port       476963                       # Packet count per connected requestor and responder (bytes)
system.tol2bus.pkt_count::total                479084                       # Packet count per connected requestor and responder (bytes)
system.tol2bus.pkt_size_system.cpu.icache.mem_side_port::system.l2.cpu_side_port        34272                       # Cumulative packet size per connected requestor and responder (bytes)
system.tol2bus.pkt_size_system.cpu.dcache.mem_side_port::system.l2.cpu_side_port     10076992                       # Cumulative packet size per connected requestor and responder (bytes)
system.tol2bus.pkt_size::total               10111264                       # Cumulative packet size per connected requestor and responder (bytes)
system.tol2bus.snoops                          310065                       # Total snoops (count)
system.tol2bus.snoopTraffic                   4850144                       # Total snoop traffic (bytes)
system.tol2bus.snoop_fanout::samples           471468                       # Request fanout histogram
system.tol2bus.snoop_fanout::mean            0.336091                       # Request fanout histogram
system.tol2bus.snoop_fanout::stdev           0.472371                       # Request fanout histogram
system.tol2bus.snoop_fanout::underflows             0      0.00%      0.00% # Request fanout histogram
system.tol2bus.snoop_fanout::0                 313012     66.39%     66.39% # Request fanout histogram
system.tol2bus.snoop_fanout::1                 158456     33.61%    100.00% # Request fanout histogram
system.tol2bus.snoop_fanout::2                      0      0.00%    100.00% # Request fanout histogram
system.tol2bus.snoop_fanout::3                      0      0.00%    100.00% # Request fanout histogram
system.tol2bus.snoop_fanout::4                      0      0.00%    100.00% # Request fanout histogram
system.tol2bus.snoop_fanout::overflows              0      0.00%    100.00% # Request fanout histogram
system.tol2bus.snoop_fanout::min_value              0                       # Request fanout histogram
system.tol2bus.snoop_fanout::max_value              1                       # Request fanout histogram
system.tol2bus.snoop_fanout::total             471468                       # Request fanout histogram
system.tol2bus.power_state.pwrStateResidencyTicks::UNDEFINED 191319011500                       # Cumulative time (in ticks) in various power states
system.tol2bus.reqLayer0.occupancy          236127500                       # Layer occupancy (ticks)
system.tol2bus.reqLayer0.utilization              0.1                       # Layer utilization (%)
system.tol2bus.respLayer0.occupancy           1050000                       # Layer occupancy (ticks)
system.tol2bus.respLayer0.utilization             0.0                       # Layer utilization (%)
system.tol2bus.respLayer1.occupancy         160353000                       # Layer occupancy (ticks)
system.tol2bus.respLayer1.utilization             0.1                       # Layer utilization (%)
system.voltage_domain.voltage                       1                       # Voltage in Volts

---------- End Simulation Statistics   ----------
